# LPF package for  MODFLOW-2005, generated by Flopy.
         0    -1E+30         0  
         0
         0
   1.000000E+00
         0
         0
INTERNAL               1 (200E15.6) -1 #hk layer 1                    
   3.962787E+00   3.935258E+00   3.904606E+00   3.862591E+00   3.833843E+00   3.813420E+00   3.802065E+00   3.789327E+00   3.787716E+00   3.761460E+00   3.732032E+00   3.689013E+00   3.641788E+00   3.585383E+00   3.527793E+00   3.488894E+00   3.471392E+00   3.475720E+00   3.487985E+00   3.515090E+00   3.555601E+00   3.610324E+00   3.676343E+00   3.769845E+00   3.856524E+00   3.942697E+00   4.024054E+00   4.102615E+00   4.173348E+00   4.228834E+00   4.263410E+00   4.278074E+00   4.262379E+00   4.208647E+00   4.144019E+00   4.060945E+00   3.983571E+00   3.902427E+00   3.837281E+00   3.780392E+00   3.734366E+00   3.705040E+00   3.677690E+00   3.641504E+00   3.612194E+00   3.596267E+00   3.597905E+00   3.596468E+00   3.597080E+00   3.587697E+00   3.565902E+00   3.538491E+00   3.502628E+00   3.460944E+00   3.425208E+00   3.380462E+00   3.348151E+00   3.330724E+00   3.342700E+00   3.384900E+00   3.438027E+00   3.508815E+00   3.589176E+00   3.667753E+00   3.725132E+00   3.774410E+00   3.803996E+00   3.824227E+00   3.826168E+00   3.806208E+00   3.768756E+00   3.724340E+00   3.683936E+00   3.658851E+00   3.654721E+00   3.647129E+00   3.655370E+00   3.651653E+00   3.644446E+00   3.635015E+00   3.635611E+00   3.623592E+00   3.611255E+00   3.599313E+00   3.582932E+00   3.572097E+00   3.569893E+00   3.582229E+00   3.598211E+00   3.649024E+00   3.714910E+00   3.790926E+00   3.863304E+00   3.918344E+00   3.938070E+00   3.934283E+00   3.911778E+00   3.868138E+00   3.820157E+00   3.755193E+00   3.688756E+00   3.614315E+00   3.538773E+00   3.483478E+00   3.436749E+00   3.398557E+00   3.375384E+00   3.354289E+00   3.352344E+00   3.340824E+00   3.328555E+00   3.308865E+00   3.299276E+00   3.304952E+00   3.313790E+00   3.343938E+00   3.403335E+00   3.481831E+00   3.577333E+00   3.681792E+00   3.773017E+00   3.873250E+00   3.962872E+00   4.047176E+00   4.126877E+00   4.192373E+00   4.267971E+00   4.324936E+00   4.356564E+00   4.372859E+00   4.360056E+00   4.335430E+00   4.308241E+00   4.267474E+00   4.212871E+00   4.168961E+00   4.110966E+00   4.072252E+00   4.050374E+00   4.051523E+00   4.074239E+00   4.106823E+00   4.158830E+00   4.213368E+00   4.279590E+00   4.349192E+00   4.431490E+00   4.525292E+00   4.590828E+00   4.617054E+00   4.595959E+00   4.545452E+00   4.457975E+00   4.371032E+00   4.269336E+00   4.164080E+00   4.064091E+00   3.962172E+00   3.866566E+00   3.760779E+00   3.673590E+00   3.573089E+00   3.493834E+00   3.440007E+00   3.401855E+00   3.385065E+00   3.389099E+00   3.415164E+00   3.461355E+00   3.544867E+00   3.647723E+00   3.756826E+00   3.870585E+00   3.969600E+00   4.043481E+00   4.094743E+00   4.129345E+00   4.160757E+00   4.187266E+00   4.202321E+00   4.222144E+00   4.238240E+00   4.251638E+00   4.250338E+00   4.238857E+00   4.202157E+00   4.153068E+00   4.089918E+00   4.032054E+00   3.993629E+00   3.975568E+00   3.977407E+00   3.985325E+00   4.000350E+00   4.005180E+00   4.010226E+00   4.009903E+00   3.991143E+00   3.983144E+00   3.979262E+00
   3.931086E+00   3.887725E+00   3.829782E+00   3.762591E+00   3.694526E+00   3.655495E+00   3.623502E+00   3.599734E+00   3.585480E+00   3.569080E+00   3.518223E+00   3.459000E+00   3.366352E+00   3.277747E+00   3.189183E+00   3.124507E+00   3.088304E+00   3.089666E+00   3.109101E+00   3.146166E+00   3.207153E+00   3.295014E+00   3.409059E+00   3.546335E+00   3.701446E+00   3.869529E+00   4.044298E+00   4.212959E+00   4.363885E+00   4.476770E+00   4.542657E+00   4.578393E+00   4.539298E+00   4.449836E+00   4.313711E+00   4.166829E+00   4.016816E+00   3.866386E+00   3.721200E+00   3.617219E+00   3.532085E+00   3.477604E+00   3.426664E+00   3.378206E+00   3.326981E+00   3.299470E+00   3.291477E+00   3.285599E+00   3.282913E+00   3.269521E+00   3.241982E+00   3.198126E+00   3.151944E+00   3.091612E+00   3.019211E+00   2.953030E+00   2.904767E+00   2.881426E+00   2.896981E+00   2.956021E+00   3.048517E+00   3.177729E+00   3.316796E+00   3.439774E+00   3.541323E+00   3.620665E+00   3.660232E+00   3.671298E+00   3.654888E+00   3.608077E+00   3.537044E+00   3.463219E+00   3.394936E+00   3.346638E+00   3.318215E+00   3.305643E+00   3.306626E+00   3.317086E+00   3.330539E+00   3.344427E+00   3.345933E+00   3.339427E+00   3.320059E+00   3.291346E+00   3.255369E+00   3.223972E+00   3.214175E+00   3.223188E+00   3.256910E+00   3.326743E+00   3.449597E+00   3.571651E+00   3.708132E+00   3.808216E+00   3.860931E+00   3.865937E+00   3.817513E+00   3.748178E+00   3.658908E+00   3.553141E+00   3.436121E+00   3.309286E+00   3.182763E+00   3.082010E+00   3.002706E+00   2.939516E+00   2.898988E+00   2.875553E+00   2.857833E+00   2.842609E+00   2.823106E+00   2.810491E+00   2.814483E+00   2.823973E+00   2.855710E+00   2.913187E+00   2.996885E+00   3.108276E+00   3.251601E+00   3.408049E+00   3.570775E+00   3.748305E+00   3.919709E+00   4.086645E+00   4.235996E+00   4.381446E+00   4.511320E+00   4.607757E+00   4.648365E+00   4.658856E+00   4.638925E+00   4.593459E+00   4.518956E+00   4.415509E+00   4.309424E+00   4.212383E+00   4.139991E+00   4.086612E+00   4.073710E+00   4.088586E+00   4.138984E+00   4.222864E+00   4.297564E+00   4.407214E+00   4.526235E+00   4.681439E+00   4.855143E+00   5.038466E+00   5.183174E+00   5.230912E+00   5.195864E+00   5.073010E+00   4.905489E+00   4.710651E+00   4.497559E+00   4.284780E+00   4.077304E+00   3.883610E+00   3.689524E+00   3.513173E+00   3.339141E+00   3.194956E+00   3.067073E+00   2.986172E+00   2.935712E+00   2.910855E+00   2.919082E+00   2.971619E+00   3.068292E+00   3.207971E+00   3.373972E+00   3.558205E+00   3.746535E+00   3.909678E+00   4.045626E+00   4.142247E+00   4.213234E+00   4.270625E+00   4.312984E+00   4.347844E+00   4.379120E+00   4.414496E+00   4.424828E+00   4.420051E+00   4.381921E+00   4.328614E+00   4.247715E+00   4.153005E+00   4.068405E+00   4.004947E+00   4.004047E+00   4.018929E+00   4.044931E+00   4.059641E+00   4.058031E+00   4.054789E+00   4.036832E+00   4.011704E+00   3.986657E+00   3.982283E+00
   3.911444E+00   3.831510E+00   3.749114E+00   3.665320E+00   3.598397E+00   3.527475E+00   3.482030E+00   3.448137E+00   3.426332E+00   3.389820E+00   3.342289E+00   3.261605E+00   3.174676E+00   3.070649E+00   2.974745E+00   2.897442E+00   2.853477E+00   2.846188E+00   2.866441E+00   2.912723E+00   2.976703E+00   3.079382E+00   3.215955E+00   3.387720E+00   3.577138E+00   3.793447E+00   4.038023E+00   4.276592E+00   4.495388E+00   4.657362E+00   4.768158E+00   4.801239E+00   4.762597E+00   4.652455E+00   4.500358E+00   4.292782E+00   4.082188E+00   3.863082E+00   3.679933E+00   3.528574E+00   3.415963E+00   3.325259E+00   3.259080E+00   3.194463E+00   3.126890E+00   3.063650E+00   3.039030E+00   3.013978E+00   3.012012E+00   3.010959E+00   3.004391E+00   2.979188E+00   2.953073E+00   2.897756E+00   2.834671E+00   2.772618E+00   2.717845E+00   2.691917E+00   2.709820E+00   2.779279E+00   2.893839E+00   3.038778E+00   3.197167E+00   3.348065E+00   3.465555E+00   3.537026E+00   3.565945E+00   3.555225E+00   3.505778E+00   3.429986E+00   3.323967E+00   3.222777E+00   3.129800E+00   3.062985E+00   3.020966E+00   3.000634E+00   3.008484E+00   3.033232E+00   3.074323E+00   3.110808E+00   3.130759E+00   3.131164E+00   3.116366E+00   3.073930E+00   3.034143E+00   2.993186E+00   2.964902E+00   2.957732E+00   2.984583E+00   3.066844E+00   3.196450E+00   3.362283E+00   3.523974E+00   3.667977E+00   3.738884E+00   3.748522E+00   3.707796E+00   3.629754E+00   3.533755E+00   3.403410E+00   3.255811E+00   3.101839E+00   2.953079E+00   2.817279E+00   2.714416E+00   2.633829E+00   2.576718E+00   2.543678E+00   2.525903E+00   2.512298E+00   2.502374E+00   2.501156E+00   2.520468E+00   2.552368E+00   2.595217E+00   2.671798E+00   2.768933E+00   2.892257E+00   3.055744E+00   3.236618E+00   3.429445E+00   3.652407E+00   3.877553E+00   4.097304E+00   4.298892E+00   4.471752E+00   4.632643E+00   4.738052E+00   4.800037E+00   4.799084E+00   4.754498E+00   4.666355E+00   4.541289E+00   4.402851E+00   4.262250E+00   4.144827E+00   4.046914E+00   4.002036E+00   3.997708E+00   4.042935E+00   4.128170E+00   4.227146E+00   4.359683E+00   4.515379E+00   4.711281E+00   4.935146E+00   5.205435E+00   5.455811E+00   5.643836E+00   5.717769E+00   5.675657E+00   5.513037E+00   5.266000E+00   4.981547E+00   4.677601E+00   4.377822E+00   4.084626E+00   3.800990E+00   3.528967E+00   3.281210E+00   3.065497E+00   2.875338E+00   2.743082E+00   2.652000E+00   2.600180E+00   2.586628E+00   2.616679E+00   2.692651E+00   2.815956E+00   2.983714E+00   3.191473E+00   3.408104E+00   3.631679E+00   3.835788E+00   4.015981E+00   4.145770E+00   4.243379E+00   4.309174E+00   4.361209E+00   4.399786E+00   4.422795E+00   4.430305E+00   4.437240E+00   4.415493E+00   4.374038E+00   4.306386E+00   4.231668E+00   4.167368E+00   4.107618E+00   4.083251E+00   4.095600E+00   4.140545E+00   4.191326E+00   4.206294E+00   4.196246E+00   4.158054E+00   4.116491E+00   4.075951E+00   4.039193E+00   4.009583E+00
   3.896395E+00   3.808081E+00   3.706676E+00   3.617140E+00   3.544070E+00   3.483347E+00   3.426352E+00   3.386245E+00   3.348477E+00   3.304924E+00   3.237665E+00   3.162116E+00   3.060507E+00   2.958771E+00   2.861234E+00   2.788399E+00   2.738281E+00   2.722393E+00   2.739180E+00   2.785869E+00   2.847298E+00   2.944496E+00   3.081481E+00   3.264057E+00   3.476559E+00   3.718356E+00   3.983725E+00   4.264976E+00   4.516745E+00   4.716517E+00   4.850496E+00   4.915798E+00   4.877772E+00   4.796840E+00   4.627168E+00   4.407612E+00   4.159390E+00   3.904291E+00   3.671144E+00   3.492066E+00   3.347552E+00   3.228809E+00   3.124463E+00   3.028183E+00   2.943612E+00   2.872924E+00   2.827020E+00   2.791303E+00   2.786483E+00   2.799983E+00   2.824817E+00   2.847796E+00   2.864065E+00   2.863302E+00   2.830050E+00   2.784714E+00   2.741528E+00   2.726046E+00   2.748848E+00   2.821574E+00   2.941253E+00   3.095665E+00   3.256328E+00   3.401603E+00   3.504719E+00   3.551353E+00   3.541184E+00   3.483292E+00   3.397036E+00   3.283718E+00   3.157928E+00   3.024830E+00   2.914375E+00   2.824805E+00   2.781100E+00   2.771868E+00   2.795019E+00   2.835462E+00   2.895225E+00   2.947062E+00   2.991755E+00   3.007788E+00   2.995569E+00   2.954901E+00   2.894004E+00   2.836860E+00   2.786683E+00   2.764330E+00   2.783966E+00   2.851947E+00   2.984925E+00   3.145547E+00   3.331630E+00   3.492068E+00   3.600919E+00   3.640479E+00   3.616499E+00   3.548615E+00   3.453648E+00   3.323578E+00   3.169042E+00   2.995703E+00   2.832761E+00   2.694770E+00   2.574001E+00   2.487932E+00   2.434057E+00   2.393650E+00   2.381053E+00   2.367027E+00   2.370625E+00   2.385170E+00   2.415872E+00   2.466095E+00   2.529874E+00   2.616121E+00   2.714251E+00   2.835333E+00   2.981617E+00   3.154616E+00   3.349770E+00   3.570805E+00   3.812801E+00   4.058517E+00   4.280022E+00   4.463511E+00   4.608138E+00   4.703374E+00   4.740933E+00   4.728386E+00   4.661703E+00   4.551202E+00   4.399757E+00   4.235907E+00   4.082245E+00   3.944589E+00   3.856474E+00   3.807372E+00   3.816404E+00   3.887786E+00   4.005322E+00   4.150189E+00   4.329413E+00   4.553854E+00   4.811707E+00   5.114890E+00   5.422697E+00   5.737801E+00   5.979331E+00   6.085330E+00   6.044376E+00   5.856220E+00   5.551498E+00   5.188785E+00   4.810486E+00   4.452098E+00   4.092766E+00   3.748680E+00   3.425135E+00   3.138564E+00   2.889410E+00   2.700680E+00   2.550802E+00   2.445243E+00   2.391623E+00   2.380361E+00   2.412851E+00   2.497615E+00   2.634091E+00   2.831217E+00   3.049954E+00   3.291900E+00   3.531866E+00   3.766434E+00   3.957982E+00   4.113029E+00   4.209249E+00   4.281494E+00   4.319096E+00   4.339276E+00   4.337282E+00   4.334815E+00   4.302917E+00   4.280807E+00   4.231364E+00   4.189350E+00   4.155108E+00   4.129582E+00   4.138608E+00   4.185064E+00   4.258687E+00   4.340774E+00   4.393870E+00   4.415490E+00   4.385953E+00   4.323220E+00   4.236943E+00   4.155980E+00   4.091935E+00   4.036515E+00
   3.901790E+00   3.809895E+00   3.713150E+00   3.630350E+00   3.558678E+00   3.493146E+00   3.438249E+00   3.386797E+00   3.350263E+00   3.288963E+00   3.216623E+00   3.121844E+00   3.023747E+00   2.922997E+00   2.831675E+00   2.753541E+00   2.702151E+00   2.679202E+00   2.700264E+00   2.743030E+00   2.818094E+00   2.926944E+00   3.056619E+00   3.230584E+00   3.438629E+00   3.675685E+00   3.932773E+00   4.187783E+00   4.435407E+00   4.641904E+00   4.792232E+00   4.872291E+00   4.908605E+00   4.864438E+00   4.746484E+00   4.553854E+00   4.323699E+00   4.030035E+00   3.758910E+00   3.508549E+00   3.313929E+00   3.156516E+00   3.022598E+00   2.903696E+00   2.799674E+00   2.721422E+00   2.671237E+00   2.639135E+00   2.636755E+00   2.670395E+00   2.738771E+00   2.822983E+00   2.910081E+00   2.960580E+00   2.976144E+00   2.960286E+00   2.945474E+00   2.944844E+00   2.982916E+00   3.057576E+00   3.184402E+00   3.341372E+00   3.498703E+00   3.627114E+00   3.702982E+00   3.705200E+00   3.643213E+00   3.534766E+00   3.393896E+00   3.237424E+00   3.073766E+00   2.923704E+00   2.787914E+00   2.690748E+00   2.641165E+00   2.635651E+00   2.664670E+00   2.728726E+00   2.799413E+00   2.865619E+00   2.917602E+00   2.930818E+00   2.905723E+00   2.851346E+00   2.781522E+00   2.704843E+00   2.636630E+00   2.599272E+00   2.599250E+00   2.653914E+00   2.769850E+00   2.935843E+00   3.119321E+00   3.298770E+00   3.442222E+00   3.518248E+00   3.534168E+00   3.508528E+00   3.444597E+00   3.340607E+00   3.192558E+00   3.012884E+00   2.849287E+00   2.706572E+00   2.596123E+00   2.518756E+00   2.464320E+00   2.428347E+00   2.404677E+00   2.406894E+00   2.422235E+00   2.448570E+00   2.486674E+00   2.553233E+00   2.621732E+00   2.698063E+00   2.789579E+00   2.882952E+00   3.000231E+00   3.140760E+00   3.319508E+00   3.523630E+00   3.753121E+00   3.991173E+00   4.187390E+00   4.355022E+00   4.460787E+00   4.499130E+00   4.505044E+00   4.484478E+00   4.418553E+00   4.309369E+00   4.154354E+00   4.001508E+00   3.840365E+00   3.701821E+00   3.601114E+00   3.565870E+00   3.585070E+00   3.674764E+00   3.811776E+00   4.004401E+00   4.233292E+00   4.505998E+00   4.817415E+00   5.152384E+00   5.490180E+00   5.837743E+00   6.113833E+00   6.269254E+00   6.251631E+00   6.082170E+00   5.759318E+00   5.355530E+00   4.927993E+00   4.504781E+00   4.099104E+00   3.720451E+00   3.368719E+00   3.066462E+00   2.811242E+00   2.601215E+00   2.445643E+00   2.332490E+00   2.270807E+00   2.255019E+00   2.288370E+00   2.376327E+00   2.523431E+00   2.715451E+00   2.944882E+00   3.190830E+00   3.443199E+00   3.688868E+00   3.913201E+00   4.079751E+00   4.192554E+00   4.246429E+00   4.279214E+00   4.268216E+00   4.247723E+00   4.206522E+00   4.172553E+00   4.135131E+00   4.107964E+00   4.081225E+00   4.088455E+00   4.122694E+00   4.193515E+00   4.300942E+00   4.423617E+00   4.541095E+00   4.622916E+00   4.633758E+00   4.597789E+00   4.522434E+00   4.414416E+00   4.300085E+00   4.189052E+00   4.089276E+00
   3.927758E+00   3.860595E+00   3.788590E+00   3.723160E+00   3.643671E+00   3.575012E+00   3.507105E+00   3.460067E+00   3.412524E+00   3.347626E+00   3.262961E+00   3.164268E+00   3.053070E+00   2.956438E+00   2.865149E+00   2.791711E+00   2.733688E+00   2.716627E+00   2.735110E+00   2.798363E+00   2.882074E+00   2.998057E+00   3.128267E+00   3.293297E+00   3.480625E+00   3.681405E+00   3.901616E+00   4.138212E+00   4.358490E+00   4.559258E+00   4.716133E+00   4.837098E+00   4.928793E+00   4.954408E+00   4.886439E+00   4.749030E+00   4.528880E+00   4.226829E+00   3.908110E+00   3.604093E+00   3.350907E+00   3.144521E+00   2.970753E+00   2.837013E+00   2.728258E+00   2.642767E+00   2.593812E+00   2.572597E+00   2.599809E+00   2.667063E+00   2.776193E+00   2.913451E+00   3.051602E+00   3.166025E+00   3.228048E+00   3.263878E+00   3.281220E+00   3.301158E+00   3.350977E+00   3.445663E+00   3.576560E+00   3.732311E+00   3.894347E+00   4.002616E+00   4.042576E+00   3.995343E+00   3.872631E+00   3.710831E+00   3.517650E+00   3.313000E+00   3.124948E+00   2.945938E+00   2.802811E+00   2.693907E+00   2.638336E+00   2.633555E+00   2.658900E+00   2.716085E+00   2.789249E+00   2.846901E+00   2.889107E+00   2.889885E+00   2.852392E+00   2.789581E+00   2.706449E+00   2.613663E+00   2.526607E+00   2.465424E+00   2.452439E+00   2.498007E+00   2.601894E+00   2.760989E+00   2.956007E+00   3.156413E+00   3.335253E+00   3.460806E+00   3.530601E+00   3.550524E+00   3.522248E+00   3.436693E+00   3.299461E+00   3.143806E+00   2.984337E+00   2.847592E+00   2.743635E+00   2.675294E+00   2.635995E+00   2.606050E+00   2.594729E+00   2.592213E+00   2.609323E+00   2.639375E+00   2.691305E+00   2.750724E+00   2.812901E+00   2.870527E+00   2.921151E+00   2.980741E+00   3.060273E+00   3.169061E+00   3.313064E+00   3.482548E+00   3.678962E+00   3.871451E+00   4.035939E+00   4.142531E+00   4.184917E+00   4.175765E+00   4.162950E+00   4.129452E+00   4.091613E+00   4.017459E+00   3.917130E+00   3.791092E+00   3.648001E+00   3.509057E+00   3.404829E+00   3.358217E+00   3.388943E+00   3.479928E+00   3.632499E+00   3.854397E+00   4.108195E+00   4.401295E+00   4.727597E+00   5.082142E+00   5.440746E+00   5.797307E+00   6.092672E+00   6.275246E+00   6.310714E+00   6.158386E+00   5.832488E+00   5.430008E+00   4.998724E+00   4.558917E+00   4.133410E+00   3.732098E+00   3.385607E+00   3.080977E+00   2.821499E+00   2.606687E+00   2.437392E+00   2.311505E+00   2.234414E+00   2.206565E+00   2.235822E+00   2.315137E+00   2.456047E+00   2.644155E+00   2.873448E+00   3.127963E+00   3.389076E+00   3.644252E+00   3.860937E+00   4.029708E+00   4.142469E+00   4.208904E+00   4.219989E+00   4.215828E+00   4.167836E+00   4.131122E+00   4.083803E+00   4.053422E+00   4.027371E+00   4.034264E+00   4.065682E+00   4.130309E+00   4.237602E+00   4.388401E+00   4.552902E+00   4.687550E+00   4.764194E+00   4.776151E+00   4.729136E+00   4.654480E+00   4.558925E+00   4.432374E+00   4.291394E+00   4.145021E+00
   3.979242E+00   3.956101E+00   3.916122E+00   3.846194E+00   3.787297E+00   3.702322E+00   3.640434E+00   3.585260E+00   3.538563E+00   3.469831E+00   3.374608E+00   3.260721E+00   3.137068E+00   3.032652E+00   2.943081E+00   2.871752E+00   2.819790E+00   2.791045E+00   2.820342E+00   2.883827E+00   2.984779E+00   3.110779E+00   3.237399E+00   3.391875E+00   3.557173E+00   3.740369E+00   3.941632E+00   4.130859E+00   4.331083E+00   4.528920E+00   4.722068E+00   4.876045E+00   4.993697E+00   5.067822E+00   5.074319E+00   4.980069E+00   4.778763E+00   4.475358E+00   4.123725E+00   3.773460E+00   3.476094E+00   3.219191E+00   3.016148E+00   2.855046E+00   2.731503E+00   2.650640E+00   2.602161E+00   2.606363E+00   2.658857E+00   2.753648E+00   2.901503E+00   3.083220E+00   3.264317E+00   3.424994E+00   3.535313E+00   3.600364E+00   3.640455E+00   3.670452E+00   3.741756E+00   3.854893E+00   4.003090E+00   4.173615E+00   4.335783E+00   4.434438E+00   4.437499E+00   4.351079E+00   4.188457E+00   3.979547E+00   3.749175E+00   3.519938E+00   3.295239E+00   3.104073E+00   2.943381E+00   2.832255E+00   2.759453E+00   2.729891E+00   2.734881E+00   2.771399E+00   2.823406E+00   2.866295E+00   2.879850E+00   2.862220E+00   2.807978E+00   2.741362E+00   2.650846E+00   2.550444E+00   2.459773E+00   2.393744E+00   2.382037E+00   2.432290E+00   2.542636E+00   2.699016E+00   2.900527E+00   3.110322E+00   3.316190E+00   3.494091E+00   3.620645E+00   3.673923E+00   3.670396E+00   3.599337E+00   3.483667E+00   3.343715E+00   3.200017E+00   3.071743E+00   2.981766E+00   2.925829E+00   2.895604E+00   2.879267E+00   2.873821E+00   2.873094E+00   2.885319E+00   2.914315E+00   2.965271E+00   3.022436E+00   3.066212E+00   3.108264E+00   3.121961E+00   3.138745E+00   3.170228E+00   3.220696E+00   3.308061E+00   3.420459E+00   3.552849E+00   3.682568E+00   3.773971E+00   3.813729E+00   3.802094E+00   3.771005E+00   3.743676E+00   3.736414E+00   3.735234E+00   3.735839E+00   3.698959E+00   3.619999E+00   3.521082E+00   3.398103E+00   3.291705E+00   3.229600E+00   3.249706E+00   3.343578E+00   3.512885E+00   3.753880E+00   4.030666E+00   4.333020E+00   4.646017E+00   4.978868E+00   5.325987E+00   5.670577E+00   5.978460E+00   6.190292E+00   6.239966E+00   6.110503E+00   5.834826E+00   5.472785E+00   5.047444E+00   4.617548E+00   4.185471E+00   3.798281E+00   3.451519E+00   3.153492E+00   2.899736E+00   2.673313E+00   2.492539E+00   2.357382E+00   2.272803E+00   2.236621E+00   2.258236E+00   2.327353E+00   2.455643E+00   2.632140E+00   2.854093E+00   3.111096E+00   3.385878E+00   3.642924E+00   3.848511E+00   3.999619E+00   4.091883E+00   4.131355E+00   4.142380E+00   4.116013E+00   4.074455E+00   4.032416E+00   3.995352E+00   3.960264E+00   3.949858E+00   3.955344E+00   4.000813E+00   4.076228E+00   4.203105E+00   4.372339E+00   4.537209E+00   4.675634E+00   4.759107E+00   4.768153E+00   4.727970E+00   4.655773E+00   4.566715E+00   4.446421E+00   4.311199E+00   4.158969E+00
   4.043942E+00   4.084248E+00   4.071548E+00   4.037430E+00   3.961067E+00   3.885236E+00   3.813740E+00   3.759571E+00   3.693060E+00   3.604114E+00   3.480065E+00   3.350168E+00   3.221353E+00   3.114142E+00   3.027708E+00   2.968556E+00   2.913715E+00   2.901046E+00   2.924494E+00   2.989248E+00   3.088384E+00   3.214665E+00   3.342324E+00   3.478943E+00   3.627556E+00   3.797716E+00   3.966052E+00   4.148015E+00   4.342098E+00   4.552015E+00   4.756489E+00   4.954775E+00   5.105193E+00   5.217521E+00   5.243756E+00   5.180026E+00   5.009003E+00   4.736252E+00   4.380535E+00   4.003783E+00   3.651727E+00   3.363730E+00   3.126699E+00   2.945078E+00   2.819629E+00   2.735848E+00   2.707080E+00   2.716830E+00   2.787296E+00   2.909019E+00   3.080425E+00   3.272323E+00   3.458124E+00   3.628375E+00   3.748005E+00   3.826238E+00   3.874467E+00   3.941109E+00   4.036157E+00   4.175661E+00   4.366664E+00   4.565980E+00   4.748941E+00   4.855904E+00   4.847382E+00   4.723763E+00   4.529946E+00   4.301034E+00   4.056577E+00   3.805233E+00   3.577424E+00   3.378154E+00   3.201233E+00   3.065064E+00   2.967404E+00   2.905122E+00   2.885433E+00   2.879985E+00   2.895598E+00   2.904267E+00   2.899388E+00   2.858589E+00   2.798103E+00   2.723726E+00   2.642588E+00   2.554875E+00   2.475533E+00   2.430487E+00   2.431269E+00   2.496859E+00   2.613510E+00   2.781931E+00   2.975830E+00   3.193283E+00   3.412112E+00   3.607955E+00   3.763257E+00   3.837830E+00   3.842723E+00   3.784515E+00   3.672465E+00   3.546623E+00   3.415690E+00   3.298468E+00   3.212207E+00   3.164360E+00   3.148618E+00   3.143446E+00   3.147765E+00   3.159715E+00   3.178736E+00   3.207417E+00   3.260082E+00   3.310828E+00   3.340296E+00   3.345656E+00   3.324298E+00   3.287566E+00   3.257963E+00   3.244597E+00   3.259335E+00   3.297521E+00   3.353890E+00   3.409577E+00   3.441798E+00   3.443752E+00   3.414713E+00   3.381807E+00   3.374651E+00   3.389864E+00   3.444554E+00   3.502503E+00   3.535357E+00   3.518926E+00   3.461849E+00   3.369527E+00   3.284395E+00   3.227884E+00   3.243030E+00   3.322562E+00   3.491108E+00   3.741830E+00   4.034557E+00   4.339046E+00   4.636783E+00   4.932155E+00   5.240300E+00   5.557509E+00   5.847257E+00   6.060115E+00   6.143717E+00   6.063405E+00   5.840566E+00   5.502175E+00   5.102957E+00   4.675735E+00   4.269980E+00   3.886325E+00   3.560382E+00   3.278309E+00   3.028612E+00   2.793958E+00   2.601223E+00   2.452694E+00   2.352374E+00   2.309354E+00   2.314317E+00   2.382716E+00   2.499870E+00   2.669118E+00   2.872016E+00   3.122751E+00   3.385060E+00   3.627305E+00   3.814728E+00   3.943706E+00   4.011624E+00   4.035429E+00   4.031613E+00   3.990065E+00   3.960778E+00   3.941035E+00   3.914993E+00   3.893398E+00   3.875872E+00   3.878527E+00   3.914109E+00   3.979096E+00   4.088550E+00   4.229388E+00   4.381903E+00   4.500991E+00   4.581547E+00   4.594106E+00   4.575738E+00   4.527453E+00   4.442632E+00   4.360682E+00   4.255009E+00   4.139196E+00
   4.118204E+00   4.210858E+00   4.262805E+00   4.250157E+00   4.208647E+00   4.125268E+00   4.065257E+00   3.997403E+00   3.909201E+00   3.779510E+00   3.618622E+00   3.458839E+00   3.315220E+00   3.196589E+00   3.115610E+00   3.068116E+00   3.036130E+00   3.024420E+00   3.037572E+00   3.091163E+00   3.170674E+00   3.276407E+00   3.403765E+00   3.532177E+00   3.672594E+00   3.816721E+00   3.980308E+00   4.159837E+00   4.383697E+00   4.596582E+00   4.813957E+00   5.005989E+00   5.181519E+00   5.289275E+00   5.335796E+00   5.285042E+00   5.155988E+00   4.924878E+00   4.611449E+00   4.239270E+00   3.877503E+00   3.554281E+00   3.295152E+00   3.101204E+00   2.959859E+00   2.877289E+00   2.846983E+00   2.876737E+00   2.957764E+00   3.078339E+00   3.238272E+00   3.413766E+00   3.595479E+00   3.736432E+00   3.842767E+00   3.910001E+00   3.973408E+00   4.058093E+00   4.187547E+00   4.376333E+00   4.611722E+00   4.858968E+00   5.051198E+00   5.164492E+00   5.161683E+00   5.043828E+00   4.842503E+00   4.609887E+00   4.365535E+00   4.127168E+00   3.916284E+00   3.719585E+00   3.534330E+00   3.381395E+00   3.237710E+00   3.137448E+00   3.067420E+00   3.019449E+00   2.985936E+00   2.955114E+00   2.920362E+00   2.866848E+00   2.804283E+00   2.741925E+00   2.669232E+00   2.616601E+00   2.575973E+00   2.565861E+00   2.601255E+00   2.681835E+00   2.828909E+00   3.010723E+00   3.223083E+00   3.450055E+00   3.653565E+00   3.812960E+00   3.943061E+00   4.020394E+00   4.008983E+00   3.952191E+00   3.841448E+00   3.726137E+00   3.609847E+00   3.506069E+00   3.425464E+00   3.372998E+00   3.342462E+00   3.343600E+00   3.354102E+00   3.379708E+00   3.413247E+00   3.449366E+00   3.492227E+00   3.513015E+00   3.511092E+00   3.485968E+00   3.432682E+00   3.358234E+00   3.270118E+00   3.189706E+00   3.132475E+00   3.100059E+00   3.091067E+00   3.086020E+00   3.077143E+00   3.064165E+00   3.045976E+00   3.046309E+00   3.069616E+00   3.128819E+00   3.219577E+00   3.329552E+00   3.413076E+00   3.460560E+00   3.453869E+00   3.415687E+00   3.354522E+00   3.319642E+00   3.333832E+00   3.425081E+00   3.583515E+00   3.818249E+00   4.091214E+00   4.376425E+00   4.642982E+00   4.915357E+00   5.189411E+00   5.482114E+00   5.739563E+00   5.937225E+00   6.021317E+00   5.969703E+00   5.783753E+00   5.507146E+00   5.158843E+00   4.774397E+00   4.399133E+00   4.037516E+00   3.708178E+00   3.425586E+00   3.169597E+00   2.936588E+00   2.729886E+00   2.577042E+00   2.473077E+00   2.423261E+00   2.431002E+00   2.485633E+00   2.602032E+00   2.752161E+00   2.948954E+00   3.172958E+00   3.409086E+00   3.626833E+00   3.803986E+00   3.901064E+00   3.955310E+00   3.968671E+00   3.953425E+00   3.917900E+00   3.893278E+00   3.873052E+00   3.862611E+00   3.836595E+00   3.818415E+00   3.802871E+00   3.816245E+00   3.857742E+00   3.934312E+00   4.038093E+00   4.145472E+00   4.244112E+00   4.295516E+00   4.320783E+00   4.320795E+00   4.298195E+00   4.258284E+00   4.217165E+00   4.165380E+00   4.084798E+00