# DIS package for  MODFLOW-2005, generated by Flopy.
         1       100       200         1         4         2
  0
CONSTANT    1.690000E+02                           #delr                          
CONSTANT    1.650000E+02                           #delc                          
CONSTANT    1.000000E+03                           #model_top                     
CONSTANT   -1.000000E+03                           #botm layer 1                  
   3650.000000             1  1.000000  SS 
