# LPF package for  MODFLOW-2005, generated by Flopy.
         0    -1E+30         0  
         0
         0
   1.000000E+00
         0
         0
INTERNAL               1 (200E15.6) -1 #hk layer 1                    
   3.962882E+00   3.935432E+00   3.904838E+00   3.862863E+00   3.834140E+00   3.813725E+00   3.802366E+00   3.789612E+00   3.787980E+00   3.761702E+00   3.732256E+00   3.689222E+00   3.641984E+00   3.585572E+00   3.527973E+00   3.489072E+00   3.471569E+00   3.475899E+00   3.488170E+00   3.515278E+00   3.555794E+00   3.610518E+00   3.676543E+00   3.770046E+00   3.856722E+00   3.942889E+00   4.024235E+00   4.102783E+00   4.173495E+00   4.228956E+00   4.263503E+00   4.278136E+00   4.262403E+00   4.208633E+00   4.143966E+00   4.060852E+00   3.983445E+00   3.902267E+00   3.837091E+00   3.780184E+00   3.734150E+00   3.704829E+00   3.677488E+00   3.641321E+00   3.612034E+00   3.596134E+00   3.597805E+00   3.596404E+00   3.597051E+00   3.587713E+00   3.565958E+00   3.538589E+00   3.502766E+00   3.461121E+00   3.425419E+00   3.380698E+00   3.348402E+00   3.330981E+00   3.342953E+00   3.385140E+00   3.438247E+00   3.509011E+00   3.589345E+00   3.667885E+00   3.725221E+00   3.774456E+00   3.804000E+00   3.824197E+00   3.826111E+00   3.806139E+00   3.768687E+00   3.724278E+00   3.683890E+00   3.658822E+00   3.654713E+00   3.647149E+00   3.655421E+00   3.651742E+00   3.644572E+00   3.635180E+00   3.635808E+00   3.623813E+00   3.611491E+00   3.599551E+00   3.583161E+00   3.572318E+00   3.570104E+00   3.582439E+00   3.598423E+00   3.649238E+00   3.715134E+00   3.791160E+00   3.863552E+00   3.918601E+00   3.938332E+00   3.934550E+00   3.912048E+00   3.868410E+00   3.820433E+00   3.755467E+00   3.689025E+00   3.614565E+00   3.539003E+00   3.483689E+00   3.436940E+00   3.398732E+00   3.375552E+00   3.354450E+00   3.352508E+00   3.340995E+00   3.328734E+00   3.309047E+00   3.299460E+00   3.305135E+00   3.313966E+00   3.344107E+00   3.403496E+00   3.481986E+00   3.577479E+00   3.681933E+00   3.773149E+00   3.873377E+00   3.962991E+00   4.047292E+00   4.126993E+00   4.192495E+00   4.268104E+00   4.325078E+00   4.356716E+00   4.373015E+00   4.360217E+00   4.335589E+00   4.308398E+00   4.267626E+00   4.213010E+00   4.169088E+00   4.111072E+00   4.072331E+00   4.050421E+00   4.051537E+00   4.074219E+00   4.106766E+00   4.158738E+00   4.213251E+00   4.279451E+00   4.349048E+00   4.431349E+00   4.525168E+00   4.590731E+00   4.616989E+00   4.595933E+00   4.545466E+00   4.458032E+00   4.371129E+00   4.269475E+00   4.164253E+00   4.064295E+00   3.962390E+00   3.866787E+00   3.760995E+00   3.673800E+00   3.573293E+00   3.494041E+00   3.440220E+00   3.402080E+00   3.385299E+00   3.389333E+00   3.415397E+00   3.461570E+00   3.545053E+00   3.647879E+00   3.756945E+00   3.870673E+00   3.969658E+00   4.043509E+00   4.094743E+00   4.129308E+00   4.160680E+00   4.187152E+00   4.202172E+00   4.221961E+00   4.238032E+00   4.251411E+00   4.250111E+00   4.238631E+00   4.201944E+00   4.152876E+00   4.089751E+00   4.031913E+00   3.993515E+00   3.975481E+00   3.977344E+00   3.985285E+00   4.000333E+00   4.005185E+00   4.010245E+00   4.009933E+00   3.991174E+00   3.983171E+00   3.979276E+00
   3.931251E+00   3.888026E+00   3.830187E+00   3.763062E+00   3.695033E+00   3.656013E+00   3.624005E+00   3.600208E+00   3.585919E+00   3.569486E+00   3.518597E+00   3.459346E+00   3.366676E+00   3.278051E+00   3.189472E+00   3.124787E+00   3.088581E+00   3.089945E+00   3.109385E+00   3.146458E+00   3.207452E+00   3.295325E+00   3.409382E+00   3.546673E+00   3.701794E+00   3.869874E+00   4.044627E+00   4.213256E+00   4.364142E+00   4.476974E+00   4.542803E+00   4.578471E+00   4.539305E+00   4.449763E+00   4.313566E+00   4.166618E+00   4.016544E+00   3.866066E+00   3.720844E+00   3.616838E+00   3.531697E+00   3.477221E+00   3.426306E+00   3.377881E+00   3.326706E+00   3.299251E+00   3.291324E+00   3.285514E+00   3.282901E+00   3.269581E+00   3.242115E+00   3.198329E+00   3.152214E+00   3.091939E+00   3.019580E+00   2.953432E+00   2.905187E+00   2.881854E+00   2.897403E+00   2.956431E+00   3.048903E+00   3.178085E+00   3.317110E+00   3.440031E+00   3.541506E+00   3.620767E+00   3.660260E+00   3.671259E+00   3.654801E+00   3.607966E+00   3.536931E+00   3.463115E+00   3.394858E+00   3.346593E+00   3.318211E+00   3.305691E+00   3.306734E+00   3.317255E+00   3.330775E+00   3.344724E+00   3.346282E+00   3.339814E+00   3.320461E+00   3.291744E+00   3.255746E+00   3.224324E+00   3.214507E+00   3.223510E+00   3.257230E+00   3.327078E+00   3.449949E+00   3.572032E+00   3.708542E+00   3.808655E+00   3.861386E+00   3.866411E+00   3.817990E+00   3.748658E+00   3.659384E+00   3.553600E+00   3.436559E+00   3.309689E+00   3.183130E+00   3.082339E+00   3.003006E+00   2.939793E+00   2.899248E+00   2.875809E+00   2.858092E+00   2.842883E+00   2.823393E+00   2.810792E+00   2.814790E+00   2.824280E+00   2.856012E+00   2.913480E+00   2.997170E+00   3.108551E+00   3.251867E+00   3.408305E+00   3.571024E+00   3.748544E+00   3.919940E+00   4.086873E+00   4.236229E+00   4.381696E+00   4.511592E+00   4.608050E+00   4.648676E+00   4.659182E+00   4.639258E+00   4.593791E+00   4.519277E+00   4.415808E+00   4.309694E+00   4.212614E+00   4.140176E+00   4.086743E+00   4.073779E+00   4.088593E+00   4.138923E+00   4.222734E+00   4.297376E+00   4.406970E+00   4.525951E+00   4.681131E+00   4.854838E+00   5.038191E+00   5.182953E+00   5.230766E+00   5.195802E+00   5.073038E+00   4.905601E+00   4.710849E+00   4.497837E+00   4.285125E+00   4.077698E+00   3.884026E+00   3.689939E+00   3.513572E+00   3.339517E+00   3.195315E+00   3.067424E+00   2.986530E+00   2.936078E+00   2.911232E+00   2.919461E+00   2.971990E+00   3.068639E+00   3.208278E+00   3.374228E+00   3.558404E+00   3.746675E+00   3.909767E+00   4.045663E+00   4.142229E+00   4.213145E+00   4.270459E+00   4.312737E+00   4.347521E+00   4.378732E+00   4.414055E+00   4.424359E+00   4.419576E+00   4.381464E+00   4.328197E+00   4.247350E+00   4.152698E+00   4.068150E+00   4.004742E+00   4.003890E+00   4.018818E+00   4.044865E+00   4.059621E+00   4.058052E+00   4.054842E+00   4.036902E+00   4.011773E+00   3.986708E+00   3.982312E+00
   3.911639E+00   3.831870E+00   3.749599E+00   3.665887E+00   3.599004E+00   3.528087E+00   3.482618E+00   3.448690E+00   3.426843E+00   3.390290E+00   3.342723E+00   3.262005E+00   3.175049E+00   3.070995E+00   2.975071E+00   2.897755E+00   2.853780E+00   2.846488E+00   2.866743E+00   2.913033E+00   2.977029E+00   3.079726E+00   3.216322E+00   3.388112E+00   3.577548E+00   3.793860E+00   4.038420E+00   4.276953E+00   4.495684E+00   4.657584E+00   4.768284E+00   4.801263E+00   4.762513E+00   4.652265E+00   4.500068E+00   4.292413E+00   4.081755E+00   3.862602E+00   3.679424E+00   3.528055E+00   3.415443E+00   3.324762E+00   3.258619E+00   3.194057E+00   3.126558E+00   3.063404E+00   3.038876E+00   3.013921E+00   3.012049E+00   3.011091E+00   3.004617E+00   2.979502E+00   2.953468E+00   2.898213E+00   2.835176E+00   2.773155E+00   2.718401E+00   2.692481E+00   2.710386E+00   2.779840E+00   2.894382E+00   3.039289E+00   3.197631E+00   3.348458E+00   3.465852E+00   3.537214E+00   3.566026E+00   3.555210E+00   3.505692E+00   3.429859E+00   3.323828E+00   3.222654E+00   3.129706E+00   3.062938E+00   3.020976E+00   3.000710E+00   3.008637E+00   3.033465E+00   3.074634E+00   3.111193E+00   3.131200E+00   3.131642E+00   3.116854E+00   3.074403E+00   3.034582E+00   2.993580E+00   2.965258E+00   2.958061E+00   2.984904E+00   3.067173E+00   3.196810E+00   3.362684E+00   3.524422E+00   3.668469E+00   3.739418E+00   3.749077E+00   3.708369E+00   3.630333E+00   3.534322E+00   3.403957E+00   3.256321E+00   3.102310E+00   2.953507E+00   2.817670E+00   2.714776E+00   2.634164E+00   2.577037E+00   2.543989E+00   2.526223E+00   2.512637E+00   2.502735E+00   2.501536E+00   2.520862E+00   2.552770E+00   2.595617E+00   2.672194E+00   2.769320E+00   2.892634E+00   3.056105E+00   3.236963E+00   3.429775E+00   3.652721E+00   3.877856E+00   4.097602E+00   4.299199E+00   4.472082E+00   4.633008E+00   4.738458E+00   4.800480E+00   4.799556E+00   4.754988E+00   4.666842E+00   4.541752E+00   4.403275E+00   4.262621E+00   4.145131E+00   4.047142E+00   4.002184E+00   3.997764E+00   4.042903E+00   4.128045E+00   4.226935E+00   4.359387E+00   4.515012E+00   4.710854E+00   4.934683E+00   5.204969E+00   5.455379E+00   5.643484E+00   5.717524E+00   5.675541E+00   5.513054E+00   5.266152E+00   4.981824E+00   4.677993E+00   4.378303E+00   4.085166E+00   3.801558E+00   3.529526E+00   3.281743E+00   3.065995E+00   2.875803E+00   2.743529E+00   2.652442E+00   2.600627E+00   2.587078E+00   2.617130E+00   2.693090E+00   2.816368E+00   2.984079E+00   3.191777E+00   3.408334E+00   3.631834E+00   3.835872E+00   4.015985E+00   4.145688E+00   4.243200E+00   4.308881E+00   4.360800E+00   4.399271E+00   4.422192E+00   4.429641E+00   4.436548E+00   4.414808E+00   4.373395E+00   4.305809E+00   4.231175E+00   4.166958E+00   4.107288E+00   4.082994E+00   4.095412E+00   4.140423E+00   4.191272E+00   4.206304E+00   4.196313E+00   4.158163E+00   4.116612E+00   4.076063E+00   4.039278E+00   4.009629E+00
   3.896585E+00   3.808432E+00   3.707147E+00   3.617686E+00   3.544652E+00   3.483929E+00   3.426909E+00   3.386767E+00   3.348960E+00   3.305366E+00   3.238066E+00   3.162484E+00   3.060847E+00   2.959083E+00   2.861526E+00   2.788673E+00   2.738546E+00   2.722654E+00   2.739442E+00   2.786142E+00   2.847590E+00   2.944814E+00   3.081825E+00   3.264430E+00   3.476955E+00   3.718761E+00   3.984116E+00   4.265323E+00   4.517018E+00   4.716687E+00   4.850546E+00   4.915709E+00   4.877549E+00   4.796485E+00   4.626702E+00   4.407068E+00   4.158794E+00   3.903676E+00   3.670521E+00   3.491452E+00   3.346960E+00   3.228255E+00   3.123967E+00   3.027765E+00   2.943287E+00   2.872702E+00   2.826908E+00   2.791301E+00   2.786589E+00   2.800198E+00   2.825138E+00   2.848217E+00   2.864573E+00   2.863882E+00   2.830681E+00   2.785378E+00   2.742216E+00   2.726751E+00   2.749566E+00   2.822296E+00   2.941969E+00   3.096352E+00   3.256958E+00   3.402147E+00   3.505145E+00   3.551643E+00   3.541338E+00   3.483322E+00   3.396973E+00   3.283594E+00   3.157779E+00   3.024692E+00   2.914272E+00   2.824756E+00   2.781117E+00   2.771960E+00   2.795195E+00   2.835721E+00   2.895569E+00   2.947479E+00   2.992226E+00   3.008286E+00   2.996069E+00   2.955373E+00   2.894425E+00   2.837221E+00   2.786987E+00   2.764591E+00   2.784207E+00   2.852190E+00   2.985193E+00   3.145859E+00   3.331995E+00   3.492493E+00   3.601398E+00   3.641003E+00   3.617049E+00   3.549177E+00   3.454209E+00   3.324119E+00   3.169555E+00   2.996184E+00   2.833213E+00   2.695196E+00   2.574403E+00   2.488315E+00   2.434425E+00   2.394013E+00   2.381425E+00   2.367419E+00   2.371042E+00   2.385610E+00   2.416330E+00   2.466566E+00   2.530347E+00   2.616589E+00   2.714709E+00   2.835777E+00   2.982036E+00   3.155008E+00   3.350130E+00   3.571133E+00   3.813103E+00   4.058806E+00   4.280311E+00   4.463828E+00   4.608501E+00   4.703800E+00   4.741421E+00   4.728928E+00   4.662278E+00   4.551782E+00   4.400309E+00   4.236405E+00   4.082668E+00   3.944928E+00   3.856718E+00   3.807519E+00   3.816447E+00   3.887724E+00   4.005155E+00   4.149917E+00   4.329040E+00   4.553385E+00   4.811162E+00   5.114291E+00   5.422086E+00   5.737224E+00   5.978838E+00   6.084971E+00   6.044179E+00   5.856200E+00   5.551655E+00   5.189104E+00   4.810935E+00   4.452652E+00   4.093385E+00   3.749325E+00   3.425770E+00   3.139170E+00   2.889972E+00   2.701206E+00   2.551298E+00   2.445724E+00   2.392097E+00   2.380832E+00   2.413313E+00   2.498063E+00   2.634508E+00   2.831587E+00   3.050255E+00   3.292117E+00   3.531990E+00   3.766461E+00   3.957902E+00   4.112835E+00   4.208929E+00   4.281036E+00   4.318497E+00   4.338550E+00   4.336466E+00   4.333943E+00   4.302035E+00   4.279955E+00   4.230584E+00   4.188666E+00   4.154530E+00   4.129117E+00   4.138245E+00   4.184795E+00   4.258510E+00   4.340691E+00   4.393876E+00   4.415577E+00   4.386109E+00   4.323412E+00   4.237141E+00   4.156151E+00   4.092058E+00   4.036581E+00
   3.901945E+00   3.810177E+00   3.713528E+00   3.630788E+00   3.559137E+00   3.493596E+00   3.438676E+00   3.387187E+00   3.350616E+00   3.289275E+00   3.216902E+00   3.122091E+00   3.023970E+00   2.923200E+00   2.831862E+00   2.753721E+00   2.702325E+00   2.679374E+00   2.700444E+00   2.743224E+00   2.818313E+00   2.927190E+00   3.056896E+00   3.230892E+00   3.438962E+00   3.676029E+00   3.933103E+00   4.188067E+00   4.435606E+00   4.641988E+00   4.792170E+00   4.872077E+00   4.908235E+00   4.863924E+00   4.745857E+00   4.553153E+00   4.322963E+00   4.029307E+00   3.758209E+00   3.507891E+00   3.313318E+00   3.155962E+00   3.022118E+00   2.903307E+00   2.799386E+00   2.721246E+00   2.671179E+00   2.639191E+00   2.636925E+00   2.670680E+00   2.739172E+00   2.823496E+00   2.910695E+00   2.961277E+00   2.976901E+00   2.961085E+00   2.946305E+00   2.945702E+00   2.983802E+00   3.058477E+00   3.185309E+00   3.342255E+00   3.499523E+00   3.627826E+00   3.703550E+00   3.705598E+00   3.643443E+00   3.534847E+00   3.393858E+00   3.237306E+00   3.073613E+00   2.923553E+00   2.787797E+00   2.690687E+00   2.641173E+00   2.635738E+00   2.664839E+00   2.728982E+00   2.799750E+00   2.866025E+00   2.918058E+00   2.931294E+00   2.906187E+00   2.851770E+00   2.781886E+00   2.705132E+00   2.636849E+00   2.599436E+00   2.599376E+00   2.654028E+00   2.769975E+00   2.935997E+00   3.119522E+00   3.299031E+00   3.442544E+00   3.518625E+00   3.534588E+00   3.508976E+00   3.445058E+00   3.341070E+00   3.193014E+00   3.013332E+00   2.849728E+00   2.707006E+00   2.596550E+00   2.519176E+00   2.464737E+00   2.428764E+00   2.405105E+00   2.407342E+00   2.422708E+00   2.449064E+00   2.487182E+00   2.553751E+00   2.622248E+00   2.698568E+00   2.790066E+00   2.883409E+00   3.000650E+00   3.141136E+00   3.319833E+00   3.523903E+00   3.753348E+00   3.991369E+00   4.187576E+00   4.355227E+00   4.461048E+00   4.499470E+00   4.505471E+00   4.484989E+00   4.419117E+00   4.309950E+00   4.154913E+00   4.002017E+00   3.840798E+00   3.702163E+00   3.601359E+00   3.566014E+00   3.585111E+00   3.674698E+00   3.811600E+00   4.004111E+00   4.232886E+00   4.505475E+00   4.816790E+00   5.151690E+00   5.489459E+00   5.837047E+00   6.113218E+00   6.268768E+00   6.251325E+00   6.082064E+00   5.759418E+00   5.355812E+00   4.928423E+00   4.505320E+00   4.099710E+00   3.721085E+00   3.369350E+00   3.067067E+00   2.811811E+00   2.601746E+00   2.446143E+00   2.332967E+00   2.271268E+00   2.255466E+00   2.288802E+00   2.376738E+00   2.523811E+00   2.715781E+00   2.945145E+00   3.190999E+00   3.443263E+00   3.688809E+00   3.913005E+00   4.079402E+00   4.192052E+00   4.245768E+00   4.278399E+00   4.267272E+00   4.246698E+00   4.205462E+00   4.171508E+00   4.134151E+00   4.107082E+00   4.080467E+00   4.087828E+00   4.122195E+00   4.193144E+00   4.300693E+00   4.423491E+00   4.541089E+00   4.623024E+00   4.633960E+00   4.598058E+00   4.522734E+00   4.414702E+00   4.300322E+00   4.189219E+00   4.089363E+00
   3.927850E+00   3.860765E+00   3.788819E+00   3.723418E+00   3.643933E+00   3.575255E+00   3.507313E+00   3.460243E+00   3.412663E+00   3.347733E+00   3.263037E+00   3.164323E+00   3.053106E+00   2.956468E+00   2.865180E+00   2.791745E+00   2.733728E+00   2.716678E+00   2.735173E+00   2.798449E+00   2.882189E+00   2.998204E+00   3.128449E+00   3.293511E+00   3.480866E+00   3.681659E+00   3.901857E+00   4.138404E+00   4.358591E+00   4.559233E+00   4.715961E+00   4.836767E+00   4.928303E+00   4.953776E+00   4.885700E+00   4.748227E+00   4.528057E+00   4.226040E+00   3.907372E+00   3.603421E+00   3.350304E+00   3.143992E+00   2.970305E+00   2.836661E+00   2.728006E+00   2.642624E+00   2.593783E+00   2.572685E+00   2.600015E+00   2.667390E+00   2.776644E+00   2.914026E+00   3.052286E+00   3.166809E+00   3.228905E+00   3.264793E+00   3.282182E+00   3.302162E+00   3.352016E+00   3.446736E+00   3.577645E+00   3.733376E+00   3.895342E+00   4.003483E+00   4.043267E+00   3.995832E+00   3.872921E+00   3.710950E+00   3.517630E+00   3.312889E+00   3.124788E+00   2.945770E+00   2.802668E+00   2.693819E+00   2.638314E+00   2.633611E+00   2.659038E+00   2.716307E+00   2.789551E+00   2.847267E+00   2.889515E+00   2.890307E+00   2.852794E+00   2.789937E+00   2.706735E+00   2.613872E+00   2.526738E+00   2.465491E+00   2.452456E+00   2.497993E+00   2.601866E+00   2.760968E+00   2.956013E+00   3.156461E+00   3.335359E+00   3.460971E+00   3.530818E+00   3.550786E+00   3.522542E+00   3.437013E+00   3.299804E+00   3.144172E+00   2.984725E+00   2.847999E+00   2.744061E+00   2.675733E+00   2.636447E+00   2.606517E+00   2.595212E+00   2.592712E+00   2.609840E+00   2.639902E+00   2.691840E+00   2.751258E+00   2.813425E+00   2.871025E+00   2.921610E+00   2.981150E+00   3.060624E+00   3.169347E+00   3.313280E+00   3.482692E+00   3.679036E+00   3.871475E+00   4.035940E+00   4.142550E+00   4.184997E+00   4.175937E+00   4.163228E+00   4.129831E+00   4.092075E+00   4.017962E+00   3.917634E+00   3.791566E+00   3.648416E+00   3.509396E+00   3.405079E+00   3.358377E+00   3.389008E+00   3.479892E+00   3.632354E+00   3.854133E+00   4.107803E+00   4.400777E+00   4.726963E+00   5.081418E+00   5.439974E+00   5.796536E+00   6.091957E+00   6.274643E+00   6.310271E+00   6.158131E+00   5.832441E+00   5.430151E+00   4.999021E+00   4.559328E+00   4.133899E+00   3.732625E+00   3.386152E+00   3.081517E+00   2.822021E+00   2.607184E+00   2.437862E+00   2.311952E+00   2.234837E+00   2.206968E+00   2.236204E+00   2.315493E+00   2.456370E+00   2.644428E+00   2.873652E+00   3.128070E+00   3.389060E+00   3.644086E+00   3.860601E+00   4.029196E+00   4.141772E+00   4.208036E+00   4.218963E+00   4.214682E+00   4.166620E+00   4.129896E+00   4.082623E+00   4.052338E+00   4.026418E+00   4.033459E+00   4.065032E+00   4.129820E+00   4.237267E+00   4.388222E+00   4.552875E+00   4.687673E+00   4.764449E+00   4.776509E+00   4.729548E+00   4.654902E+00   4.559312E+00   4.432686E+00   4.291612E+00   4.145130E+00
   3.979263E+00   3.956141E+00   3.916172E+00   3.846239E+00   3.787327E+00   3.702321E+00   3.640400E+00   3.585188E+00   3.538455E+00   3.469690E+00   3.374441E+00   3.260537E+00   3.136885E+00   3.032477E+00   2.942925E+00   2.871617E+00   2.819681E+00   2.790966E+00   2.820292E+00   2.883808E+00   2.984796E+00   3.110835E+00   3.237494E+00   3.392007E+00   3.557335E+00   3.740545E+00   3.941794E+00   4.130970E+00   4.331103E+00   4.528821E+00   4.721830E+00   4.875657E+00   4.993164E+00   5.067157E+00   5.073555E+00   4.979251E+00   4.777946E+00   4.474585E+00   4.123017E+00   3.772824E+00   3.475524E+00   3.218695E+00   3.015733E+00   2.854718E+00   2.731271E+00   2.650507E+00   2.602137E+00   2.606450E+00   2.659065E+00   2.753976E+00   2.901954E+00   3.083799E+00   3.265016E+00   3.425800E+00   3.536205E+00   3.601322E+00   3.641466E+00   3.671510E+00   3.742859E+00   3.856033E+00   4.004247E+00   4.174749E+00   4.336840E+00   4.435350E+00   4.438221E+00   4.351583E+00   4.188754E+00   3.979659E+00   3.749145E+00   3.519807E+00   3.295051E+00   3.103872E+00   2.943200E+00   2.832122E+00   2.759390E+00   2.729905E+00   2.734977E+00   2.771576E+00   2.823658E+00   2.866606E+00   2.880199E+00   2.862576E+00   2.808311E+00   2.741643E+00   2.651056E+00   2.550574E+00   2.459825E+00   2.393730E+00   2.381963E+00   2.432165E+00   2.542473E+00   2.698828E+00   2.900332E+00   3.110143E+00   3.316045E+00   3.493992E+00   3.620602E+00   3.673934E+00   3.670458E+00   3.599452E+00   3.483839E+00   3.343943E+00   3.200303E+00   3.072080E+00   2.982148E+00   2.926250E+00   2.896061E+00   2.879752E+00   2.874325E+00   2.873610E+00   2.885841E+00   2.914839E+00   2.965790E+00   3.022943E+00   3.066692E+00   3.108703E+00   3.122339E+00   3.139054E+00   3.170459E+00   3.220841E+00   3.308114E+00   3.420416E+00   3.552722E+00   3.682373E+00   3.773751E+00   3.813528E+00   3.801958E+00   3.770968E+00   3.743756E+00   3.736612E+00   3.735532E+00   3.736207E+00   3.699364E+00   3.620404E+00   3.521459E+00   3.398432E+00   3.291965E+00   3.229786E+00   3.249810E+00   3.343589E+00   3.512787E+00   3.753656E+00   4.030306E+00   4.332520E+00   4.645389E+00   4.978128E+00   5.325174E+00   5.669731E+00   5.977633E+00   6.189533E+00   6.239330E+00   6.110026E+00   5.834527E+00   5.472653E+00   5.047462E+00   4.617689E+00   4.185709E+00   3.798595E+00   3.451888E+00   3.153893E+00   2.900155E+00   2.673732E+00   2.492951E+00   2.357777E+00   2.273182E+00   2.236978E+00   2.258568E+00   2.327659E+00   2.455911E+00   2.632356E+00   2.854234E+00   3.111131E+00   3.385771E+00   3.642643E+00   3.848039E+00   3.998944E+00   4.091014E+00   4.130306E+00   4.141181E+00   4.114705E+00   4.073100E+00   4.031072E+00   3.994082E+00   3.959120E+00   3.948869E+00   3.954535E+00   4.000194E+00   4.075794E+00   4.202859E+00   4.372275E+00   4.537326E+00   4.675922E+00   4.759539E+00   4.768677E+00   4.728533E+00   4.656319E+00   4.567197E+00   4.446804E+00   4.311457E+00   4.159097E+00
   4.043893E+00   4.084153E+00   4.071413E+00   4.037255E+00   3.960857E+00   3.884989E+00   3.813456E+00   3.759253E+00   3.692708E+00   3.603737E+00   3.479670E+00   3.349771E+00   3.220966E+00   3.113779E+00   3.027381E+00   2.968272E+00   2.913483E+00   2.900866E+00   2.924365E+00   2.989170E+00   3.088354E+00   3.214682E+00   3.342384E+00   3.479045E+00   3.627692E+00   3.797868E+00   3.966190E+00   4.148103E+00   4.342104E+00   4.551916E+00   4.756269E+00   4.954430E+00   5.104726E+00   5.216953E+00   5.243107E+00   5.179339E+00   5.008318E+00   4.735601E+00   4.379933E+00   4.003236E+00   3.651232E+00   3.363289E+00   3.126322E+00   2.944773E+00   2.819404E+00   2.735711E+00   2.707038E+00   2.716893E+00   2.787465E+00   2.909305E+00   3.080829E+00   3.272845E+00   3.458756E+00   3.629102E+00   3.748806E+00   3.827092E+00   3.875364E+00   3.942047E+00   4.037134E+00   4.176671E+00   4.367686E+00   4.566972E+00   4.749850E+00   4.856676E+00   4.847976E+00   4.724159E+00   4.530152E+00   4.301079E+00   4.056486E+00   3.805052E+00   3.577188E+00   3.377899E+00   3.201000E+00   3.064884E+00   2.967296E+00   2.905096E+00   2.885491E+00   2.880123E+00   2.895807E+00   2.904533E+00   2.899688E+00   2.858894E+00   2.798381E+00   2.723951E+00   2.642739E+00   2.554947E+00   2.475526E+00   2.430408E+00   2.431123E+00   2.496644E+00   2.613233E+00   2.781594E+00   2.975456E+00   3.192889E+00   3.411721E+00   3.607595E+00   3.762942E+00   3.837570E+00   3.842527E+00   3.784395E+00   3.672426E+00   3.546673E+00   3.415820E+00   3.298678E+00   3.212485E+00   3.164698E+00   3.149007E+00   3.143877E+00   3.148221E+00   3.160181E+00   3.179201E+00   3.207875E+00   3.260526E+00   3.311246E+00   3.340673E+00   3.345975E+00   3.324543E+00   3.287727E+00   3.258035E+00   3.244570E+00   3.259204E+00   3.297290E+00   3.353574E+00   3.409198E+00   3.441395E+00   3.443367E+00   3.414389E+00   3.381582E+00   3.374541E+00   3.389876E+00   3.444683E+00   3.502727E+00   3.535646E+00   3.519246E+00   3.462177E+00   3.369830E+00   3.284658E+00   3.228093E+00   3.243172E+00   3.322618E+00   3.491058E+00   3.741646E+00   4.034220E+00   4.338552E+00   4.636137E+00   4.931376E+00   5.239408E+00   5.556537E+00   5.846252E+00   6.059126E+00   6.142797E+00   6.062595E+00   5.839893E+00   5.501656E+00   5.102582E+00   4.675499E+00   4.269872E+00   3.886335E+00   3.560493E+00   3.278507E+00   3.028873E+00   2.794259E+00   2.601544E+00   2.453017E+00   2.352688E+00   2.309653E+00   2.314593E+00   2.382967E+00   2.500084E+00   2.669281E+00   2.872099E+00   3.122720E+00   3.384877E+00   3.626938E+00   3.814157E+00   3.942926E+00   4.010643E+00   4.034277E+00   4.030321E+00   3.988691E+00   3.959370E+00   3.939656E+00   3.913706E+00   3.892255E+00   3.874914E+00   3.877773E+00   3.913566E+00   3.978764E+00   4.088424E+00   4.229465E+00   4.382176E+00   4.501447E+00   4.582142E+00   4.594783E+00   4.576428E+00   4.528099E+00   4.443182E+00   4.361107E+00   4.255292E+00   4.139336E+00
   4.118095E+00   4.210648E+00   4.262506E+00   4.249786E+00   4.208214E+00   4.124794E+00   4.064749E+00   3.996866E+00   3.908643E+00   3.778943E+00   3.618060E+00   3.458290E+00   3.314697E+00   3.196105E+00   3.115173E+00   3.067736E+00   3.035820E+00   3.024185E+00   3.037410E+00   3.091070E+00   3.170645E+00   3.276440E+00   3.403854E+00   3.532315E+00   3.672772E+00   3.816915E+00   3.980489E+00   4.159976E+00   4.383766E+00   4.596564E+00   4.813850E+00   5.005794E+00   5.181245E+00   5.288927E+00   5.335395E+00   5.284609E+00   5.155548E+00   4.924442E+00   4.611026E+00   4.238861E+00   3.877111E+00   3.553913E+00   3.294818E+00   3.100915E+00   2.959632E+00   2.877129E+00   2.846903E+00   2.876742E+00   2.957863E+00   3.078533E+00   3.238565E+00   3.414153E+00   3.595947E+00   3.736963E+00   3.843338E+00   3.910598E+00   3.974024E+00   4.058726E+00   4.188194E+00   4.376995E+00   4.612378E+00   4.859584E+00   5.051729E+00   5.164904E+00   5.161955E+00   5.043957E+00   4.842495E+00   4.609766E+00   4.365322E+00   4.126886E+00   3.915964E+00   3.719261E+00   3.534039E+00   3.381162E+00   3.237559E+00   3.137389E+00   3.067450E+00   3.019561E+00   2.986118E+00   2.955347E+00   2.920626E+00   2.867110E+00   2.804517E+00   2.742104E+00   2.669343E+00   2.616635E+00   2.575929E+00   2.565740E+00   2.601055E+00   2.681548E+00   2.828532E+00   3.010262E+00   3.222553E+00   3.449475E+00   3.652965E+00   3.812371E+00   3.942506E+00   4.019885E+00   4.008543E+00   3.951832E+00   3.841186E+00   3.725976E+00   3.609786E+00   3.506104E+00   3.425586E+00   3.373193E+00   3.342714E+00   3.343900E+00   3.354429E+00   3.380050E+00   3.413592E+00   3.449703E+00   3.492543E+00   3.513296E+00   3.511322E+00   3.486134E+00   3.432769E+00   3.358233E+00   3.270021E+00   3.189517E+00   3.132190E+00   3.099688E+00   3.090623E+00   3.085531E+00   3.076637E+00   3.063676E+00   3.045539E+00   3.045954E+00   3.069366E+00   3.128687E+00   3.219561E+00   3.329642E+00   3.413249E+00   3.460792E+00   3.454126E+00   3.415949E+00   3.354767E+00   3.319860E+00   3.333999E+00   3.425175E+00   3.583502E+00   3.818099E+00   4.090900E+00   4.375935E+00   4.642313E+00   4.914519E+00   5.188419E+00   5.480993E+00   5.738347E+00   5.935968E+00   6.020063E+00   5.968512E+00   5.782664E+00   5.506186E+00   5.158034E+00   4.773753E+00   4.398654E+00   4.037202E+00   3.708019E+00   3.425557E+00   3.169676E+00   2.936743E+00   2.730088E+00   2.577270E+00   2.473310E+00   2.423488E+00   2.431215E+00   2.485827E+00   2.602195E+00   2.752270E+00   2.948982E+00   3.172869E+00   3.408845E+00   3.626406E+00   3.803359E+00   3.900235E+00   3.954295E+00   3.967497E+00   3.952129E+00   3.916536E+00   3.891904E+00   3.871724E+00   3.861392E+00   3.835538E+00   3.817558E+00   3.802236E+00   3.815836E+00   3.857554E+00   3.934339E+00   4.038321E+00   4.145895E+00   4.244704E+00   4.296231E+00   4.321558E+00   4.321568E+00   4.298905E+00   4.258882E+00   4.217621E+00   4.165685E+00   4.084949E+00