# LPF package for  MODFLOW-2005, generated by Flopy.
         0    -1E+30         0  
         0
         0
   1.000000E+00
         0
         0
INTERNAL               1 (200E15.6) -1 #hk layer 1                    
   3.963353E+00   3.935836E+00   3.905191E+00   3.863177E+00   3.834432E+00   3.814007E+00   3.802651E+00   3.789904E+00   3.788285E+00   3.762011E+00   3.732561E+00   3.689513E+00   3.642258E+00   3.585824E+00   3.528204E+00   3.489283E+00   3.471765E+00   3.476082E+00   3.488344E+00   3.515453E+00   3.555977E+00   3.610717E+00   3.676760E+00   3.770291E+00   3.856997E+00   3.943200E+00   4.024587E+00   4.103178E+00   4.173938E+00   4.229446E+00   4.264042E+00   4.278722E+00   4.263031E+00   4.209293E+00   4.144653E+00   4.061555E+00   3.984158E+00   3.902987E+00   3.837814E+00   3.780904E+00   3.734857E+00   3.705515E+00   3.678149E+00   3.641949E+00   3.612628E+00   3.596695E+00   3.598333E+00   3.596895E+00   3.597509E+00   3.588133E+00   3.566341E+00   3.538933E+00   3.503069E+00   3.461382E+00   3.425641E+00   3.380888E+00   3.348567E+00   3.331131E+00   3.343099E+00   3.385293E+00   3.438412E+00   3.509191E+00   3.589545E+00   3.668113E+00   3.725485E+00   3.774760E+00   3.804345E+00   3.824584E+00   3.826534E+00   3.806588E+00   3.769151E+00   3.724754E+00   3.684374E+00   3.659315E+00   3.655215E+00   3.647654E+00   3.655926E+00   3.652236E+00   3.645050E+00   3.635633E+00   3.636239E+00   3.624218E+00   3.611873E+00   3.599916E+00   3.583511E+00   3.572652E+00   3.570422E+00   3.582738E+00   3.598703E+00   3.649508E+00   3.715395E+00   3.791419E+00   3.863810E+00   3.918861E+00   3.938593E+00   3.934809E+00   3.912303E+00   3.868658E+00   3.820672E+00   3.755699E+00   3.689252E+00   3.614798E+00   3.539243E+00   3.483940E+00   3.437204E+00   3.399007E+00   3.375831E+00   3.354733E+00   3.352791E+00   3.341271E+00   3.329003E+00   3.309311E+00   3.299725E+00   3.305408E+00   3.314255E+00   3.344418E+00   3.403841E+00   3.482369E+00   3.577909E+00   3.682411E+00   3.773673E+00   3.873945E+00   3.963599E+00   4.047935E+00   4.127663E+00   4.193176E+00   4.268787E+00   4.325753E+00   4.357369E+00   4.373643E+00   4.360810E+00   4.336152E+00   4.308934E+00   4.268139E+00   4.213506E+00   4.169577E+00   4.111558E+00   4.072823E+00   4.050928E+00   4.052066E+00   4.074773E+00   4.107348E+00   4.159348E+00   4.213882E+00   4.280101E+00   4.349709E+00   4.432019E+00   4.525845E+00   4.591407E+00   4.617659E+00   4.596584E+00   4.546092E+00   4.458625E+00   4.371686E+00   4.269991E+00   4.164727E+00   4.064729E+00   3.962791E+00   3.867163E+00   3.761350E+00   3.674136E+00   3.573609E+00   3.494333E+00   3.440494E+00   3.402336E+00   3.385546E+00   3.389582E+00   3.415655E+00   3.461856E+00   3.545384E+00   3.648265E+00   3.757393E+00   3.871182E+00   3.970225E+00   4.044127E+00   4.095407E+00   4.130017E+00   4.161435E+00   4.187948E+00   4.203000E+00   4.222818E+00   4.238909E+00   4.252296E+00   4.250988E+00   4.239494E+00   4.202780E+00   4.153679E+00   4.090518E+00   4.032646E+00   3.994217E+00   3.976157E+00   3.977999E+00   3.985921E+00   4.000951E+00   4.005784E+00   4.010828E+00   4.010504E+00   3.991733E+00   3.983724E+00   3.979827E+00
   3.931659E+00   3.888315E+00   3.830383E+00   3.763193E+00   3.695126E+00   3.656092E+00   3.624089E+00   3.600307E+00   3.586035E+00   3.569612E+00   3.518718E+00   3.459451E+00   3.366753E+00   3.278098E+00   3.189487E+00   3.124774E+00   3.088543E+00   3.089890E+00   3.109318E+00   3.146389E+00   3.207391E+00   3.295280E+00   3.409359E+00   3.546679E+00   3.701839E+00   3.869974E+00   4.044798E+00   4.213518E+00   4.364499E+00   4.477433E+00   4.543358E+00   4.579123E+00   4.540038E+00   4.450565E+00   4.314410E+00   4.167490E+00   4.017430E+00   3.866953E+00   3.721717E+00   3.617695E+00   3.532527E+00   3.478018E+00   3.427055E+00   3.378574E+00   3.327333E+00   3.299810E+00   3.291816E+00   3.285938E+00   3.283259E+00   3.269876E+00   3.242344E+00   3.198493E+00   3.152314E+00   3.091978E+00   3.019567E+00   2.953372E+00   2.905095E+00   2.881739E+00   2.897278E+00   2.956307E+00   3.048790E+00   3.177989E+00   3.317044E+00   3.440007E+00   3.541543E+00   3.620877E+00   3.660445E+00   3.671516E+00   3.655123E+00   3.608336E+00   3.537335E+00   3.463542E+00   3.395299E+00   3.347044E+00   3.318668E+00   3.306147E+00   3.307178E+00   3.317682E+00   3.331175E+00   3.345091E+00   3.346610E+00   3.340103E+00   3.320718E+00   3.291974E+00   3.255955E+00   3.224509E+00   3.214668E+00   3.223644E+00   3.257337E+00   3.327158E+00   3.450014E+00   3.572081E+00   3.708582E+00   3.808689E+00   3.861417E+00   3.866434E+00   3.818004E+00   3.748664E+00   3.659383E+00   3.553598E+00   3.436564E+00   3.309710E+00   3.183170E+00   3.082401E+00   3.003087E+00   2.939889E+00   2.899355E+00   2.875920E+00   2.858200E+00   2.842978E+00   2.823477E+00   2.810867E+00   2.814869E+00   2.824372E+00   2.856128E+00   2.913634E+00   2.997372E+00   3.108816E+00   3.252204E+00   3.408724E+00   3.571523E+00   3.749128E+00   3.920602E+00   4.087603E+00   4.237008E+00   4.382502E+00   4.512403E+00   4.608841E+00   4.649421E+00   4.659869E+00   4.639881E+00   4.594352E+00   4.519783E+00   4.416272E+00   4.310129E+00   4.213037E+00   4.140604E+00   4.087191E+00   4.074261E+00   4.089114E+00   4.139494E+00   4.223360E+00   4.298046E+00   4.407687E+00   4.526705E+00   4.681917E+00   4.855650E+00   5.039021E+00   5.183786E+00   5.231580E+00   5.196576E+00   5.073749E+00   4.906242E+00   4.711410E+00   4.498311E+00   4.285514E+00   4.078013E+00   3.884281E+00   3.690147E+00   3.513745E+00   3.339660E+00   3.195432E+00   3.067515E+00   2.986595E+00   2.936125E+00   2.911267E+00   2.919499E+00   2.972052E+00   3.068747E+00   3.208457E+00   3.374500E+00   3.558781E+00   3.747161E+00   3.910354E+00   4.046345E+00   4.142998E+00   4.214002E+00   4.271403E+00   4.313763E+00   4.348616E+00   4.379879E+00   4.415239E+00   4.425550E+00   4.420753E+00   4.382602E+00   4.329279E+00   4.248366E+00   4.153644E+00   4.069035E+00   4.005574E+00   4.004684E+00   4.019577E+00   4.045590E+00   4.060308E+00   4.058698E+00   4.055454E+00   4.037486E+00   4.012339E+00   3.987263E+00   3.982863E+00
   3.912013E+00   3.832088E+00   3.749699E+00   3.665906E+00   3.598980E+00   3.528047E+00   3.482587E+00   3.448676E+00   3.426849E+00   3.390306E+00   3.342735E+00   3.261997E+00   3.175012E+00   3.070926E+00   2.974969E+00   2.897622E+00   2.853625E+00   2.846316E+00   2.866560E+00   2.912848E+00   2.976847E+00   3.079556E+00   3.216169E+00   3.387983E+00   3.577456E+00   3.793828E+00   4.038476E+00   4.277122E+00   4.495992E+00   4.658036E+00   4.768886E+00   4.802005E+00   4.763380E+00   4.653227E+00   4.501101E+00   4.293473E+00   4.082820E+00   3.863647E+00   3.680438E+00   3.529029E+00   3.416375E+00   3.325638E+00   3.259433E+00   3.194791E+00   3.127197E+00   3.063939E+00   3.039311E+00   3.014258E+00   3.012300E+00   3.011259E+00   3.004707E+00   2.979516E+00   2.953411E+00   2.898091E+00   2.834999E+00   2.772931E+00   2.718138E+00   2.692189E+00   2.710073E+00   2.779516E+00   2.894062E+00   3.038985E+00   3.197360E+00   3.348245E+00   3.465722E+00   3.537183E+00   3.566100E+00   3.555389E+00   3.505961E+00   3.430200E+00   3.324216E+00   3.223069E+00   3.130137E+00   3.063372E+00   3.021405E+00   3.001126E+00   3.009032E+00   3.033834E+00   3.074973E+00   3.111495E+00   3.131462E+00   3.131863E+00   3.117041E+00   3.074560E+00   3.034719E+00   2.993698E+00   2.965355E+00   2.958134E+00   2.984947E+00   3.067188E+00   3.196796E+00   3.362646E+00   3.524362E+00   3.668396E+00   3.739326E+00   3.748970E+00   3.708247E+00   3.630199E+00   3.534189E+00   3.403830E+00   3.256212E+00   3.102223E+00   2.953444E+00   2.817628E+00   2.714755E+00   2.634159E+00   2.577041E+00   2.543998E+00   2.526224E+00   2.512625E+00   2.502708E+00   2.501500E+00   2.520829E+00   2.552753E+00   2.595631E+00   2.672252E+00   2.769438E+00   2.892827E+00   3.056394E+00   3.237357E+00   3.430278E+00   3.653339E+00   3.878585E+00   4.098427E+00   4.300093E+00   4.473008E+00   4.633935E+00   4.739345E+00   4.801299E+00   4.800286E+00   4.755619E+00   4.667382E+00   4.542217E+00   4.403685E+00   4.263000E+00   4.145502E+00   4.047524E+00   4.002600E+00   3.998229E+00   4.043430E+00   4.128641E+00   4.227601E+00   4.360123E+00   4.515814E+00   4.711720E+00   4.935606E+00   5.205943E+00   5.456386E+00   5.644492E+00   5.718503E+00   5.676456E+00   5.513875E+00   5.266858E+00   4.982407E+00   4.678446E+00   4.378635E+00   4.085390E+00   3.801692E+00   3.529594E+00   3.281763E+00   3.065981E+00   2.875762E+00   2.743466E+00   2.652359E+00   2.600530E+00   2.586978E+00   2.617043E+00   2.693036E+00   2.816373E+00   2.984174E+00   3.191989E+00   3.408680E+00   3.632322E+00   3.836498E+00   4.016746E+00   4.146571E+00   4.244205E+00   4.310004E+00   4.362034E+00   4.400594E+00   4.423576E+00   4.431050E+00   4.437956E+00   4.416181E+00   4.374705E+00   4.307039E+00   4.232319E+00   4.168023E+00   4.108283E+00   4.083931E+00   4.096303E+00   4.141274E+00   4.192077E+00   4.207054E+00   4.197005E+00   4.158800E+00   4.117210E+00   4.076637E+00   4.039839E+00   4.010183E+00
   3.896950E+00   3.808636E+00   3.707224E+00   3.617678E+00   3.544600E+00   3.483865E+00   3.426854E+00   3.386730E+00   3.348938E+00   3.305354E+00   3.238049E+00   3.162451E+00   3.060785E+00   2.958991E+00   2.861399E+00   2.788518E+00   2.738367E+00   2.722460E+00   2.739240E+00   2.785936E+00   2.847384E+00   2.944613E+00   3.081635E+00   3.264261E+00   3.476819E+00   3.718681E+00   3.984122E+00   4.265452E+00   4.517301E+00   4.717148E+00   4.851192E+00   4.916540E+00   4.878535E+00   4.797606E+00   4.627903E+00   4.408302E+00   4.160019E+00   3.904858E+00   3.671644E+00   3.492515E+00   3.347959E+00   3.229180E+00   3.124804E+00   3.028497E+00   2.943900E+00   2.873191E+00   2.827274E+00   2.791551E+00   2.786736E+00   2.800252E+00   2.825107E+00   2.848105E+00   2.864389E+00   2.863635E+00   2.830378E+00   2.785029E+00   2.741825E+00   2.726321E+00   2.749105E+00   2.821815E+00   2.941482E+00   3.095880E+00   3.256531E+00   3.401796E+00   3.504903E+00   3.551530E+00   3.541362E+00   3.483477E+00   3.397242E+00   3.283951E+00   3.158195E+00   3.025137E+00   2.914725E+00   2.825199E+00   2.781541E+00   2.772361E+00   2.795565E+00   2.836060E+00   2.895872E+00   2.947744E+00   2.992458E+00   3.008486E+00   2.996238E+00   2.955518E+00   2.894552E+00   2.837337E+00   2.787091E+00   2.764680E+00   2.784276E+00   2.852234E+00   2.985212E+00   3.145849E+00   3.331961E+00   3.492434E+00   3.601312E+00   3.640891E+00   3.616915E+00   3.549028E+00   3.454056E+00   3.323972E+00   3.169423E+00   2.996067E+00   2.833112E+00   2.695111E+00   2.574332E+00   2.488257E+00   2.434378E+00   2.393969E+00   2.381376E+00   2.367356E+00   2.370966E+00   2.385528E+00   2.416254E+00   2.466510E+00   2.530327E+00   2.616621E+00   2.714808E+00   2.835963E+00   2.982329E+00   3.155422E+00   3.350676E+00   3.571818E+00   3.813923E+00   4.059745E+00   4.281337E+00   4.464888E+00   4.609547E+00   4.704779E+00   4.742296E+00   4.729680E+00   4.662903E+00   4.552295E+00   4.400731E+00   4.236766E+00   4.082999E+00   3.945250E+00   3.857059E+00   3.807898E+00   3.816881E+00   3.888231E+00   4.005748E+00   4.150602E+00   4.329821E+00   4.554266E+00   4.812141E+00   5.115361E+00   5.423229E+00   5.738419E+00   5.980049E+00   6.086147E+00   6.045275E+00   5.857168E+00   5.552464E+00   5.189739E+00   4.811402E+00   4.452962E+00   4.093559E+00   3.749387E+00   3.425748E+00   3.139088E+00   2.889850E+00   2.701058E+00   2.551132E+00   2.445544E+00   2.391915E+00   2.380655E+00   2.413158E+00   2.497950E+00   2.634465E+00   2.831645E+00   3.050445E+00   3.292463E+00   3.532505E+00   3.767149E+00   3.958756E+00   4.113845E+00   4.210082E+00   4.282325E+00   4.319902E+00   4.340046E+00   4.338008E+00   4.335497E+00   4.303555E+00   4.281418E+00   4.231960E+00   4.189949E+00   4.155724E+00   4.130226E+00   4.139289E+00   4.185793E+00   4.259466E+00   4.341601E+00   4.394728E+00   4.416361E+00   4.386817E+00   4.324057E+00   4.237736E+00   4.156720E+00   4.092617E+00   4.037134E+00
   3.902330E+00   3.810416E+00   3.713650E+00   3.630829E+00   3.559137E+00   3.493587E+00   3.438677E+00   3.387208E+00   3.350659E+00   3.289328E+00   3.216954E+00   3.122127E+00   3.023979E+00   2.923176E+00   2.831803E+00   2.753628E+00   2.702208E+00   2.679239E+00   2.700297E+00   2.743071E+00   2.818156E+00   2.927034E+00   3.056747E+00   3.230758E+00   3.438856E+00   3.675971E+00   3.933124E+00   4.188201E+00   4.435896E+00   4.642464E+00   4.792852E+00   4.872959E+00   4.909311E+00   4.865157E+00   4.747195E+00   4.554533E+00   4.324336E+00   4.030608E+00   3.759421E+00   3.509003E+00   3.314339E+00   3.156891E+00   3.022943E+00   2.904012E+00   2.799962E+00   2.721687E+00   2.671491E+00   2.639380E+00   2.637003E+00   2.670658E+00   2.739058E+00   2.823297E+00   2.910419E+00   2.960933E+00   2.976501E+00   2.960633E+00   2.945805E+00   2.945158E+00   2.983219E+00   3.057868E+00   3.184690E+00   3.341658E+00   3.498985E+00   3.627392E+00   3.703257E+00   3.705470E+00   3.643483E+00   3.535043E+00   3.394184E+00   3.237731E+00   3.074100E+00   2.924067E+00   2.788306E+00   2.691174E+00   2.641627E+00   2.636155E+00   2.665215E+00   2.729317E+00   2.800045E+00   2.866281E+00   2.918281E+00   2.931487E+00   2.906355E+00   2.851920E+00   2.782027E+00   2.705272E+00   2.636989E+00   2.599576E+00   2.599514E+00   2.654158E+00   2.770094E+00   2.936102E+00   3.119608E+00   3.299092E+00   3.442576E+00   3.518624E+00   3.534561E+00   3.508927E+00   3.444997E+00   3.341005E+00   3.192946E+00   3.013262E+00   2.849658E+00   2.706938E+00   2.596488E+00   2.519121E+00   2.464686E+00   2.428715E+00   2.405048E+00   2.407276E+00   2.422635E+00   2.448992E+00   2.487123E+00   2.553721E+00   2.622263E+00   2.698644E+00   2.790222E+00   2.883660E+00   3.001015E+00   3.141631E+00   3.320474E+00   3.524697E+00   3.754294E+00   3.992449E+00   4.188740E+00   4.356422E+00   4.462203E+00   4.500521E+00   4.506384E+00   4.485750E+00   4.419734E+00   4.310441E+00   4.155307E+00   4.002347E+00   3.841092E+00   3.702446E+00   3.601654E+00   3.566343E+00   3.585491E+00   3.675153E+00   3.812149E+00   4.004773E+00   4.233670E+00   4.506393E+00   4.817842E+00   5.152864E+00   5.490734E+00   5.838399E+00   6.114607E+00   6.270143E+00   6.252614E+00   6.083212E+00   5.760373E+00   5.356554E+00   4.928954E+00   4.505661E+00   4.099886E+00   3.721128E+00   3.369291E+00   3.066936E+00   2.811634E+00   2.601541E+00   2.445921E+00   2.332739E+00   2.271044E+00   2.255258E+00   2.288625E+00   2.376612E+00   2.523761E+00   2.715839E+00   2.945342E+00   3.191367E+00   3.443822E+00   3.689571E+00   3.913969E+00   4.080555E+00   4.193371E+00   4.247224E+00   4.279974E+00   4.268919E+00   4.248370E+00   4.207110E+00   4.173098E+00   4.135652E+00   4.108482E+00   4.081757E+00   4.089024E+00   4.123309E+00   4.194194E+00   4.301695E+00   4.424449E+00   4.541998E+00   4.623870E+00   4.634729E+00   4.598750E+00   4.523363E+00   4.415288E+00   4.300888E+00   4.189777E+00   4.089918E+00
   3.928278E+00   3.861079E+00   3.789039E+00   3.723575E+00   3.644055E+00   3.575373E+00   3.507451E+00   3.460408E+00   3.412856E+00   3.347943E+00   3.263249E+00   3.164521E+00   3.053273E+00   2.956597E+00   2.865265E+00   2.791792E+00   2.733742E+00   2.716668E+00   2.735147E+00   2.798411E+00   2.882142E+00   2.998155E+00   3.128402E+00   3.293476E+00   3.480851E+00   3.681682E+00   3.901944E+00   4.138597E+00   4.358932E+00   4.559759E+00   4.716689E+00   4.837704E+00   4.929446E+00   4.955092E+00   4.887132E+00   4.749714E+00   4.529528E+00   4.227423E+00   3.908640E+00   3.604561E+00   3.351328E+00   3.144904E+00   2.971103E+00   2.837341E+00   2.728560E+00   2.643050E+00   2.594083E+00   2.572864E+00   2.600081E+00   2.667351E+00   2.776506E+00   2.913795E+00   3.051972E+00   3.166419E+00   3.228449E+00   3.264279E+00   3.281613E+00   3.301543E+00   3.351357E+00   3.446046E+00   3.576952E+00   3.732716E+00   3.894765E+00   4.003043E+00   4.043005E+00   3.995769E+00   3.873051E+00   3.711248E+00   3.518065E+00   3.313421E+00   3.125383E+00   2.946386E+00   2.803276E+00   2.694390E+00   2.638841E+00   2.634086E+00   2.659458E+00   2.716672E+00   2.789864E+00   2.847532E+00   2.889743E+00   2.890505E+00   2.852971E+00   2.790103E+00   2.706904E+00   2.614048E+00   2.526927E+00   2.465694E+00   2.452674E+00   2.498227E+00   2.602115E+00   2.761228E+00   2.956275E+00   3.156715E+00   3.335592E+00   3.461174E+00   3.530993E+00   3.550936E+00   3.522669E+00   3.437118E+00   3.299884E+00   3.144229E+00   2.984761E+00   2.848021E+00   2.744071E+00   2.675739E+00   2.636448E+00   2.606511E+00   2.595198E+00   2.592693E+00   2.609821E+00   2.639896E+00   2.691860E+00   2.751318E+00   2.813539E+00   2.871213E+00   2.921886E+00   2.981530E+00   3.061124E+00   3.169982E+00   3.314065E+00   3.483632E+00   3.680131E+00   3.872698E+00   4.037240E+00   4.143853E+00   4.186226E+00   4.177032E+00   4.164167E+00   4.130602E+00   4.092691E+00   4.018449E+00   3.918022E+00   3.791882E+00   3.648683E+00   3.509639E+00   3.405322E+00   3.358642E+00   3.389317E+00   3.480270E+00   3.632826E+00   3.854728E+00   4.108539E+00   4.401664E+00   4.728009E+00   5.082618E+00   5.441308E+00   5.797981E+00   6.093472E+00   6.276168E+00   6.311735E+00   6.159458E+00   5.833557E+00   5.431032E+00   4.999669E+00   4.559760E+00   4.134141E+00   3.732713E+00   3.386118E+00   3.081394E+00   2.821836E+00   2.606961E+00   2.437620E+00   2.311705E+00   2.234602E+00   2.206758E+00   2.236034E+00   2.315382E+00   2.456341E+00   2.644511E+00   2.873881E+00   3.128482E+00   3.389686E+00   3.644944E+00   3.861688E+00   4.030492E+00   4.143251E+00   4.209659E+00   4.220685E+00   4.216464E+00   4.168397E+00   4.131626E+00   4.084265E+00   4.053866E+00   4.027816E+00   4.034735E+00   4.066195E+00   4.130884E+00   4.238252E+00   4.389146E+00   4.553742E+00   4.688479E+00   4.765186E+00   4.777172E+00   4.730149E+00   4.655460E+00   4.559851E+00   4.433223E+00   4.292154E+00   4.145680E+00
   3.979746E+00   3.956556E+00   3.916525E+00   3.846547E+00   3.787617E+00   3.702618E+00   3.640725E+00   3.585552E+00   3.538860E+00   3.470124E+00   3.374884E+00   3.260966E+00   3.137276E+00   3.032821E+00   2.943215E+00   2.871856E+00   2.819872E+00   2.791115E+00   2.820414E+00   2.883909E+00   2.984884E+00   3.110917E+00   3.237574E+00   3.392093E+00   3.557434E+00   3.740674E+00   3.941981E+00   4.131250E+00   4.331516E+00   4.529404E+00   4.722607E+00   4.876635E+00   4.994336E+00   5.068501E+00   5.075025E+00   4.980775E+00   4.779445E+00   4.475988E+00   4.124290E+00   3.773958E+00   3.476537E+00   3.219590E+00   3.016516E+00   2.855390E+00   2.731827E+00   2.650949E+00   2.602463E+00   2.606666E+00   2.659171E+00   2.753978E+00   2.901859E+00   3.083607E+00   3.264735E+00   3.425437E+00   3.535769E+00   3.600824E+00   3.640911E+00   3.670907E+00   3.742218E+00   3.855373E+00   4.003597E+00   4.174153E+00   4.336354E+00   4.435029E+00   4.438103E+00   4.351682E+00   4.189053E+00   3.980127E+00   3.749742E+00   3.520497E+00   3.295792E+00   3.104627E+00   2.943935E+00   2.832812E+00   2.760015E+00   2.730458E+00   2.735454E+00   2.771981E+00   2.823998E+00   2.866888E+00   2.880435E+00   2.862780E+00   2.808495E+00   2.741829E+00   2.651254E+00   2.550790E+00   2.460065E+00   2.393997E+00   2.382265E+00   2.432508E+00   2.542862E+00   2.699259E+00   2.900800E+00   3.110631E+00   3.316537E+00   3.494476E+00   3.621063E+00   3.674366E+00   3.670858E+00   3.599809E+00   3.484149E+00   3.344205E+00   3.200521E+00   3.072265E+00   2.982307E+00   2.926390E+00   2.896184E+00   2.879861E+00   2.874424E+00   2.873707E+00   2.885946E+00   2.914963E+00   2.965951E+00   3.023156E+00   3.066971E+00   3.109066E+00   3.122796E+00   3.139616E+00   3.171137E+00   3.221645E+00   3.309058E+00   3.421504E+00   3.553945E+00   3.683703E+00   3.775124E+00   3.814871E+00   3.803201E+00   3.772067E+00   3.744689E+00   3.737379E+00   3.736150E+00   3.736700E+00   3.699753E+00   3.620711E+00   3.521708E+00   3.398638E+00   3.292157E+00   3.229985E+00   3.250042E+00   3.343886E+00   3.513182E+00   3.754183E+00   4.030985E+00   4.333369E+00   4.646409E+00   4.979323E+00   5.326530E+00   5.671233E+00   5.979243E+00   6.191197E+00   6.240961E+00   6.111535E+00   5.835840E+00   5.473733E+00   5.048298E+00   4.618290E+00   4.186098E+00   3.798801E+00   3.451944E+00   3.153835E+00   2.900011E+00   2.673532E+00   2.492720E+00   2.357539E+00   2.272957E+00   2.236783E+00   2.258422E+00   2.327578E+00   2.455921E+00   2.632485E+00   2.854519E+00   3.111613E+00   3.386488E+00   3.643616E+00   3.849257E+00   4.000383E+00   4.092633E+00   4.132055E+00   4.143016E+00   4.116571E+00   4.074943E+00   4.032843E+00   3.995740E+00   3.960636E+00   3.950237E+00   3.955749E+00   4.001266E+00   4.076738E+00   4.203697E+00   4.373023E+00   4.537991E+00   4.676507E+00   4.760052E+00   4.769134E+00   4.728955E+00   4.656733E+00   4.567628E+00   4.447264E+00   4.311954E+00   4.159626E+00
   4.044434E+00   4.084679E+00   4.071916E+00   4.037745E+00   3.961342E+00   3.885494E+00   3.813998E+00   3.759847E+00   3.693355E+00   3.604419E+00   3.480358E+00   3.350440E+00   3.221594E+00   3.114352E+00   3.027891E+00   2.968716E+00   2.913856E+00   2.901178E+00   2.924625E+00   2.989393E+00   3.088553E+00   3.214870E+00   3.342566E+00   3.479226E+00   3.627879E+00   3.798080E+00   3.966450E+00   4.148447E+00   4.342564E+00   4.552526E+00   4.757048E+00   4.955390E+00   5.105858E+00   5.218237E+00   5.244497E+00   5.180773E+00   5.009727E+00   4.736927E+00   4.381137E+00   4.004314E+00   3.652193E+00   3.364149E+00   3.127083E+00   2.945439E+00   2.819976E+00   2.736187E+00   2.707417E+00   2.717173E+00   2.787649E+00   2.909394E+00   3.080826E+00   3.272753E+00   3.458579E+00   3.628850E+00   3.748490E+00   3.826726E+00   3.874953E+00   3.941603E+00   4.036670E+00   4.176208E+00   4.367256E+00   4.566622E+00   4.749632E+00   4.856634E+00   4.848137E+00   4.724521E+00   4.530694E+00   4.301766E+00   4.057287E+00   3.805923E+00   3.578099E+00   3.378813E+00   3.201877E+00   3.065694E+00   2.968019E+00   2.905721E+00   2.886023E+00   2.880561E+00   2.896165E+00   2.904822E+00   2.899927E+00   2.859100E+00   2.798576E+00   2.724155E+00   2.642968E+00   2.555207E+00   2.475824E+00   2.430751E+00   2.431520E+00   2.497108E+00   2.613771E+00   2.782212E+00   2.976140E+00   3.193629E+00   3.412497E+00   3.608384E+00   3.763727E+00   3.838330E+00   3.843244E+00   3.785054E+00   3.673018E+00   3.547199E+00   3.416289E+00   3.299095E+00   3.212863E+00   3.165047E+00   3.149331E+00   3.144178E+00   3.148510E+00   3.160469E+00   3.179501E+00   3.208200E+00   3.260896E+00   3.311676E+00   3.341174E+00   3.346560E+00   3.325216E+00   3.288491E+00   3.258894E+00   3.245530E+00   3.260275E+00   3.298469E+00   3.354847E+00   3.410535E+00   3.442742E+00   3.444666E+00   3.415585E+00   3.382637E+00   3.375446E+00   3.390628E+00   3.445296E+00   3.503222E+00   3.536040E+00   3.519552E+00   3.462415E+00   3.370018E+00   3.284819E+00   3.228247E+00   3.243351E+00   3.322854E+00   3.491391E+00   3.742117E+00   4.034861E+00   4.339378E+00   4.637156E+00   4.932585E+00   5.240807E+00   5.558114E+00   5.847974E+00   6.060934E+00   6.144611E+00   6.064318E+00   5.841451E+00   5.502989E+00   5.103672E+00   4.676339E+00   4.270477E+00   3.886726E+00   3.560704E+00   3.278570E+00   3.028823E+00   2.794128E+00   2.601367E+00   2.452825E+00   2.352506E+00   2.309504E+00   2.314496E+00   2.382941E+00   2.500155E+00   2.669478E+00   2.872458E+00   3.123284E+00   3.385684E+00   3.628003E+00   3.815469E+00   3.944453E+00   4.012337E+00   4.036086E+00   4.032192E+00   3.990562E+00   3.961202E+00   3.941404E+00   3.915324E+00   3.893714E+00   3.876194E+00   3.878873E+00   3.914493E+00   3.979531E+00   4.089051E+00   4.229969E+00   4.382571E+00   4.501748E+00   4.582375E+00   4.594977E+00   4.576626E+00   4.528328E+00   4.443470E+00   4.361467E+00   4.255726E+00   4.139837E+00
   4.118690E+00   4.211275E+00   4.263157E+00   4.250454E+00   4.208907E+00   4.125519E+00   4.065526E+00   3.997705E+00   3.909539E+00   3.779868E+00   3.618980E+00   3.459177E+00   3.315533E+00   3.196872E+00   3.115870E+00   3.068355E+00   3.036355E+00   3.024635E+00   3.037786E+00   3.091388E+00   3.170922E+00   3.276689E+00   3.404088E+00   3.532540E+00   3.672997E+00   3.817160E+00   3.980778E+00   4.160337E+00   4.384232E+00   4.597153E+00   4.814574E+00   5.006657E+00   5.182242E+00   5.290036E+00   5.336582E+00   5.285824E+00   5.156745E+00   4.925586E+00   4.612089E+00   4.239830E+00   3.877996E+00   3.554719E+00   3.295553E+00   3.101581E+00   2.960226E+00   2.877649E+00   2.847345E+00   2.877104E+00   2.958147E+00   3.078740E+00   3.238697E+00   3.414213E+00   3.595946E+00   3.736907E+00   3.843244E+00   3.910474E+00   3.973880E+00   4.058575E+00   4.188054E+00   4.376884E+00   4.612332E+00   4.859643E+00   5.051932E+00   5.165278E+00   5.162503E+00   5.044663E+00   4.843334E+00   4.610706E+00   4.366335E+00   4.127947E+00   3.917045E+00   3.720326E+00   3.535045E+00   3.382080E+00   3.238359E+00   3.138069E+00   3.068012E+00   3.020015E+00   2.986479E+00   2.955636E+00   2.920866E+00   2.867324E+00   2.804728E+00   2.742334E+00   2.669606E+00   2.616943E+00   2.576291E+00   2.566166E+00   2.601557E+00   2.682143E+00   2.829238E+00   3.011077E+00   3.223470E+00   3.450480E+00   3.654029E+00   3.813459E+00   3.943598E+00   4.020962E+00   4.009574E+00   3.952805E+00   3.842082E+00   3.726798E+00   3.610539E+00   3.506796E+00   3.426228E+00   3.373795E+00   3.343283E+00   3.344442E+00   3.354954E+00   3.380570E+00   3.414122E+00   3.450259E+00   3.493145E+00   3.513953E+00   3.512042E+00   3.486923E+00   3.433627E+00   3.359159E+00   3.271011E+00   3.190567E+00   3.133304E+00   3.100862E+00   3.091845E+00   3.086771E+00   3.077861E+00   3.064846E+00   3.046619E+00   3.046920E+00   3.070205E+00   3.129396E+00   3.220151E+00   3.330125E+00   3.413636E+00   3.461096E+00   3.454363E+00   3.416135E+00   3.354918E+00   3.319996E+00   3.334148E+00   3.425375E+00   3.583794E+00   3.818528E+00   4.091501E+00   4.376733E+00   4.643317E+00   4.915740E+00   5.189856E+00   5.482643E+00   5.740173E+00   5.937914E+00   6.022047E+00   5.970441E+00   5.784455E+00   5.507783E+00   5.159393E+00   4.774856E+00   4.399506E+00   4.037813E+00   3.708416E+00   3.425779E+00   3.169757E+00   2.936725E+00   2.730008E+00   2.577166E+00   2.473212E+00   2.423420E+00   2.431200E+00   2.485883E+00   2.602352E+00   2.752557E+00   2.949437E+00   3.173528E+00   3.409739E+00   3.627551E+00   3.804739E+00   3.901810E+00   3.956015E+00   3.969308E+00   3.953978E+00   3.918365E+00   3.893670E+00   3.873384E+00   3.862910E+00   3.836873E+00   3.818694E+00   3.803167E+00   3.816569E+00   3.858105E+00   3.934727E+00   4.038567E+00   4.146019E+00   4.244734E+00   4.296202E+00   4.321516E+00   4.321556E+00   4.298957E+00   4.259025E+00   4.217872E+00   4.166044E+00   4.085410E+00