# Name file for MODFLOW-2005, generated by Flopy version 3.2.12.
#xll:0; yll:0; rotation:0; proj4_str:None; units:meters; lenuni:2;  ;start_datetime:1-1-1970
LIST               2  mf.list
DIS               11  mf.dis 
BAS6              13  mf.bas 
LPF               15  mf.lpf 
RCH               19  mf.rch 
OC                14  mf.oc 
PCG               27  mf.pcg 
GHB               23  mf.ghb 
HOB               39  mf.hob 
DATA(BINARY)      51  mf.hds REPLACE
DATA               7  mf.hob.out
