# LPF package for  MODFLOW-2005, generated by Flopy.
         0    -1E+30         0  
         0
         0
   1.000000E+00
         0
         0
INTERNAL               1 (200E15.6) -1 #hk layer 1                    
   3.962822E+00   3.935328E+00   3.904707E+00   3.862723E+00   3.834004E+00   3.813605E+00   3.802272E+00   3.789549E+00   3.787945E+00   3.761687E+00   3.732250E+00   3.689214E+00   3.641967E+00   3.585544E+00   3.527932E+00   3.489013E+00   3.471496E+00   3.475812E+00   3.488073E+00   3.515182E+00   3.555701E+00   3.610432E+00   3.676463E+00   3.769971E+00   3.856650E+00   3.942824E+00   4.024180E+00   4.102737E+00   4.173466E+00   4.228946E+00   4.263515E+00   4.278173E+00   4.262467E+00   4.208723E+00   4.144079E+00   4.060984E+00   3.983589E+00   3.902419E+00   3.837244E+00   3.780329E+00   3.734277E+00   3.704930E+00   3.677561E+00   3.641365E+00   3.612053E+00   3.596133E+00   3.597782E+00   3.596364E+00   3.596999E+00   3.587650E+00   3.565887E+00   3.538506E+00   3.502669E+00   3.461005E+00   3.425285E+00   3.380550E+00   3.348245E+00   3.330817E+00   3.342788E+00   3.384978E+00   3.438089E+00   3.508854E+00   3.589193E+00   3.667737E+00   3.725084E+00   3.774332E+00   3.803894E+00   3.824109E+00   3.826041E+00   3.806083E+00   3.768637E+00   3.724238E+00   3.683853E+00   3.658789E+00   3.654680E+00   3.647115E+00   3.655383E+00   3.651695E+00   3.644513E+00   3.635108E+00   3.635722E+00   3.623718E+00   3.611391E+00   3.599452E+00   3.583069E+00   3.572230E+00   3.570017E+00   3.582345E+00   3.598324E+00   3.649133E+00   3.715019E+00   3.791038E+00   3.863422E+00   3.918466E+00   3.938194E+00   3.934408E+00   3.911903E+00   3.868257E+00   3.820270E+00   3.755296E+00   3.688847E+00   3.614391E+00   3.538833E+00   3.483524E+00   3.436781E+00   3.398576E+00   3.375390E+00   3.354280E+00   3.352324E+00   3.340791E+00   3.328513E+00   3.308812E+00   3.299213E+00   3.304877E+00   3.313706E+00   3.343843E+00   3.403234E+00   3.481725E+00   3.577226E+00   3.681691E+00   3.772925E+00   3.873170E+00   3.962803E+00   4.047125E+00   4.126848E+00   4.192362E+00   4.267971E+00   4.324945E+00   4.356582E+00   4.372880E+00   4.360078E+00   4.335451E+00   4.308263E+00   4.267496E+00   4.212893E+00   4.168990E+00   4.110998E+00   4.072281E+00   4.050396E+00   4.051538E+00   4.074239E+00   4.106804E+00   4.158788E+00   4.213301E+00   4.279499E+00   4.349087E+00   4.431381E+00   4.525190E+00   4.590744E+00   4.616997E+00   4.595935E+00   4.545459E+00   4.458018E+00   4.371105E+00   4.269439E+00   4.164204E+00   4.064233E+00   3.962319E+00   3.866712E+00   3.760917E+00   3.673717E+00   3.573202E+00   3.493935E+00   3.440098E+00   3.401943E+00   3.385151E+00   3.389185E+00   3.415250E+00   3.461440E+00   3.544948E+00   3.647808E+00   3.756913E+00   3.870681E+00   3.969703E+00   4.043589E+00   4.094855E+00   4.129456E+00   4.160864E+00   4.187365E+00   4.202407E+00   4.222214E+00   4.238290E+00   4.251661E+00   4.250339E+00   4.238836E+00   4.202121E+00   4.153027E+00   4.089876E+00   4.032013E+00   3.993595E+00   3.975544E+00   3.977390E+00   3.985317E+00   4.000350E+00   4.005188E+00   4.010238E+00   4.009922E+00   3.991161E+00   3.983159E+00   3.979270E+00
   3.931152E+00   3.887849E+00   3.829964E+00   3.762824E+00   3.694808E+00   3.655820E+00   3.623860E+00   3.600116E+00   3.585876E+00   3.569474E+00   3.518600E+00   3.459347E+00   3.366662E+00   3.278017E+00   3.189415E+00   3.124704E+00   3.088473E+00   3.089821E+00   3.109249E+00   3.146322E+00   3.207319E+00   3.295199E+00   3.409260E+00   3.546550E+00   3.701669E+00   3.869753E+00   4.044519E+00   4.213174E+00   4.364091E+00   4.476968E+00   4.542840E+00   4.578557E+00   4.539443E+00   4.449956E+00   4.313800E+00   4.166883E+00   4.016829E+00   3.866360E+00   3.721131E+00   3.617107E+00   3.531935E+00   3.477418E+00   3.426453E+00   3.377978E+00   3.326753E+00   3.299251E+00   3.291280E+00   3.285434E+00   3.282793E+00   3.269456E+00   3.241974E+00   3.198170E+00   3.152034E+00   3.091736E+00   3.019360E+00   2.953193E+00   2.904937E+00   2.881593E+00   2.897135E+00   2.956159E+00   3.048629E+00   3.177807E+00   3.316834E+00   3.439765E+00   3.541260E+00   3.620551E+00   3.660078E+00   3.671115E+00   3.654695E+00   3.607888E+00   3.536877E+00   3.463074E+00   3.394824E+00   3.346558E+00   3.318171E+00   3.305643E+00   3.306671E+00   3.317173E+00   3.330669E+00   3.344593E+00   3.346127E+00   3.339643E+00   3.320288E+00   3.291579E+00   3.255596E+00   3.224186E+00   3.214374E+00   3.223373E+00   3.257087E+00   3.326920E+00   3.449778E+00   3.571846E+00   3.708339E+00   3.808437E+00   3.861156E+00   3.866165E+00   3.817734E+00   3.748391E+00   3.659107E+00   3.553317E+00   3.436275E+00   3.309412E+00   3.182865E+00   3.082086E+00   3.002759E+00   2.939544E+00   2.898992E+00   2.875537E+00   2.857795E+00   2.842553E+00   2.823035E+00   2.810407E+00   2.814385E+00   2.823858E+00   2.855577E+00   2.913034E+00   2.996720E+00   3.108101E+00   3.251423E+00   3.407875E+00   3.570613E+00   3.748158E+00   3.919584E+00   4.086546E+00   4.235933E+00   4.381416E+00   4.511318E+00   4.607778E+00   4.648402E+00   4.658905E+00   4.638978E+00   4.593517E+00   4.519013E+00   4.415570E+00   4.309487E+00   4.212447E+00   4.140052E+00   4.086669E+00   4.073754E+00   4.088612E+00   4.138982E+00   4.222826E+00   4.297489E+00   4.407094E+00   4.526075E+00   4.681243E+00   4.854937E+00   5.038268E+00   5.183012E+00   5.230809E+00   5.195827E+00   5.073043E+00   4.905586E+00   4.710813E+00   4.497772E+00   4.285034E+00   4.077582E+00   3.883891E+00   3.689791E+00   3.513415E+00   3.339352E+00   3.195140E+00   3.067233E+00   2.986317E+00   2.935850E+00   2.910992E+00   2.919219E+00   2.971761E+00   3.068438E+00   3.208121E+00   3.374131E+00   3.558378E+00   3.746723E+00   3.909885E+00   4.045848E+00   4.142478E+00   4.213456E+00   4.270835E+00   4.313176E+00   4.348009E+00   4.379250E+00   4.414578E+00   4.424860E+00   4.420040E+00   4.381875E+00   4.328547E+00   4.247640E+00   4.152935E+00   4.068344E+00   4.004901E+00   4.004017E+00   4.018914E+00   4.044932E+00   4.059659E+00   4.058062E+00   4.054833E+00   4.036880E+00   4.011750E+00   3.986690E+00   3.982304E+00
   3.911527E+00   3.831670E+00   3.749345E+00   3.665616E+00   3.598753E+00   3.527880E+00   3.482474E+00   3.448613E+00   3.426824E+00   3.390313E+00   3.342764E+00   3.262041E+00   3.175066E+00   3.070986E+00   2.975032E+00   2.897684E+00   2.853689E+00   2.846382E+00   2.866627E+00   2.912917E+00   2.976916E+00   3.079616E+00   3.216210E+00   3.387991E+00   3.577416E+00   3.793726E+00   4.038295E+00   4.276851E+00   4.495630E+00   4.657587E+00   4.768357E+00   4.801413E+00   4.762741E+00   4.652564E+00   4.500428E+00   4.292810E+00   4.082174E+00   3.863023E+00   3.679830E+00   3.528428E+00   3.415777E+00   3.325042E+00   3.258840E+00   3.194209E+00   3.126637E+00   3.063413E+00   3.038818E+00   3.013808E+00   3.011895E+00   3.010907E+00   3.004412E+00   2.979279E+00   2.953225E+00   2.897952E+00   2.834899E+00   2.772862E+00   2.718091E+00   2.692156E+00   2.710045E+00   2.779481E+00   2.894009E+00   3.038909E+00   3.197248E+00   3.348092E+00   3.465521E+00   3.536932E+00   3.565802E+00   3.555052E+00   3.505595E+00   3.429816E+00   3.323822E+00   3.222663E+00   3.129721E+00   3.062943E+00   3.020965E+00   3.000677E+00   3.008574E+00   3.033369E+00   3.074504E+00   3.111030E+00   3.131011E+00   3.131438E+00   3.116649E+00   3.074211E+00   3.034411E+00   2.993433E+00   2.965128E+00   2.957942E+00   2.984783E+00   3.067045E+00   3.196663E+00   3.362517E+00   3.524230E+00   3.668255E+00   3.739179E+00   3.748816E+00   3.708086E+00   3.630032E+00   3.534008E+00   3.403635E+00   3.256002E+00   3.101998E+00   2.953204E+00   2.817373E+00   2.714479E+00   2.633862E+00   2.576723E+00   2.543652E+00   2.525851E+00   2.512226E+00   2.502284E+00   2.501048E+00   2.520342E+00   2.552224E+00   2.595053E+00   2.671613E+00   2.768731E+00   2.892044E+00   3.055521E+00   3.236396E+00   3.429229E+00   3.652205E+00   3.877373E+00   4.097159E+00   4.298791E+00   4.471697E+00   4.632630E+00   4.738077E+00   4.800090E+00   4.799160E+00   4.754592E+00   4.666461E+00   4.541399E+00   4.402963E+00   4.262362E+00   4.144929E+00   4.047003E+00   4.002112E+00   3.997759E+00   4.042960E+00   4.128158E+00   4.227094E+00   4.359581E+00   4.515229E+00   4.711082E+00   4.934910E+00   5.205181E+00   5.455573E+00   5.643649E+00   5.717661E+00   5.675644E+00   5.513120E+00   5.266180E+00   4.981811E+00   4.677931E+00   4.378199E+00   4.085019E+00   3.801373E+00   3.529319E+00   3.281521E+00   3.065762E+00   2.875560E+00   2.743272E+00   2.652169E+00   2.600341E+00   2.586788E+00   2.616846E+00   2.692829E+00   2.816148E+00   2.983919E+00   3.191700E+00   3.408354E+00   3.631958E+00   3.836099E+00   4.016315E+00   4.146109E+00   4.243711E+00   4.309481E+00   4.361483E+00   4.400014E+00   4.422967E+00   4.430410E+00   4.437279E+00   4.415475E+00   4.373980E+00   4.306306E+00   4.231589E+00   4.167297E+00   4.107567E+00   4.083224E+00   4.095599E+00   4.140568E+00   4.191370E+00   4.206358E+00   4.196325E+00   4.158147E+00   4.116582E+00   4.076030E+00   4.039253E+00   4.009617E+00
   3.896484E+00   3.808252E+00   3.706922E+00   3.617450E+00   3.544443E+00   3.483775E+00   3.426825E+00   3.386754E+00   3.349008E+00   3.305458E+00   3.238182E+00   3.162595E+00   3.060936E+00   2.959142E+00   2.861549E+00   2.788666E+00   2.738515E+00   2.722612E+00   2.739395E+00   2.786096E+00   2.847544E+00   2.944767E+00   3.081771E+00   3.264363E+00   3.476868E+00   3.718659E+00   3.984008E+00   4.265230E+00   4.516963E+00   4.716698E+00   4.850637E+00   4.915899E+00   4.877837E+00   4.796870E+00   4.627160E+00   4.407576E+00   4.159322E+00   3.904199E+00   3.671021E+00   3.491915E+00   3.347372E+00   3.228608E+00   3.124249E+00   3.027966E+00   2.943400E+00   2.872727E+00   2.826851E+00   2.791178E+00   2.786415E+00   2.799983E+00   2.824897E+00   2.847953E+00   2.864290E+00   2.863583E+00   2.830368E+00   2.785049E+00   2.741866E+00   2.726375E+00   2.749162E+00   2.821862E+00   2.941508E+00   3.095877E+00   3.256489E+00   3.401707E+00   3.504761E+00   3.551337E+00   3.541123E+00   3.483203E+00   3.396944E+00   3.283637E+00   3.157870E+00   3.024804E+00   2.914384E+00   2.824847E+00   2.781173E+00   2.771977E+00   2.795165E+00   2.835646E+00   2.895447E+00   2.947318E+00   2.992042E+00   3.008090E+00   2.995874E+00   2.955194E+00   2.894275E+00   2.837107E+00   2.786906E+00   2.764534E+00   2.784162E+00   2.852143E+00   2.985135E+00   3.145783E+00   3.331898E+00   3.492369E+00   3.601241E+00   3.640813E+00   3.616829E+00   3.548932E+00   3.453940E+00   3.323834E+00   3.169260E+00   2.995881E+00   2.832903E+00   2.694877E+00   2.574075E+00   2.487972E+00   2.434063E+00   2.393621E+00   2.380994E+00   2.366944E+00   2.370520E+00   2.385046E+00   2.415729E+00   2.465931E+00   2.529687E+00   2.615910E+00   2.714019E+00   2.835087E+00   2.981361E+00   3.154356E+00   3.349512E+00   3.570557E+00   3.812573E+00   4.058322E+00   4.279874E+00   4.463419E+00   4.608100E+00   4.703389E+00   4.740991E+00   4.728483E+00   4.661833E+00   4.551354E+00   4.399917E+00   4.236067E+00   4.082395E+00   3.944721E+00   3.856582E+00   3.807457E+00   3.816453E+00   3.887799E+00   4.005298E+00   4.150126E+00   4.329306E+00   4.553701E+00   4.811513E+00   5.114663E+00   5.422462E+00   5.737589E+00   5.979178E+00   6.085276E+00   6.044437E+00   5.856396E+00   5.551782E+00   5.189160E+00   4.810919E+00   4.452568E+00   4.093242E+00   3.749130E+00   3.425537E+00   3.138911E+00   2.889696E+00   2.700918E+00   2.551001E+00   2.445418E+00   2.391791E+00   2.380531E+00   2.413033E+00   2.497818E+00   2.634316E+00   2.831469E+00   3.050239E+00   3.292224E+00   3.532231E+00   3.766844E+00   3.958421E+00   4.113476E+00   4.209682E+00   4.281893E+00   4.319439E+00   4.339552E+00   4.337483E+00   4.334939E+00   4.302967E+00   4.280796E+00   4.231315E+00   4.189286E+00   4.155048E+00   4.129546E+00   4.138598E+00   4.185090E+00   4.258747E+00   4.340867E+00   4.393988E+00   4.415625E+00   4.386101E+00   4.323372E+00   4.237088E+00   4.156102E+00   4.092023E+00   4.036564E+00
   3.901876E+00   3.810057E+00   3.713380E+00   3.630643E+00   3.559031E+00   3.493554E+00   3.438710E+00   3.387300E+00   3.350796E+00   3.289503E+00   3.217153E+00   3.122338E+00   3.024191E+00   2.923385E+00   2.832008E+00   2.753827E+00   2.702405E+00   2.679440E+00   2.700504E+00   2.743284E+00   2.818372E+00   2.927244E+00   3.056940E+00   3.230916E+00   3.438958E+00   3.675993E+00   3.933046E+00   4.188006E+00   4.435575E+00   4.642012E+00   4.792276E+00   4.872278E+00   4.908547E+00   4.864343E+00   4.746367E+00   4.553724E+00   4.323565E+00   4.029897E+00   3.758770E+00   3.508405E+00   3.313782E+00   3.156366E+00   3.022449E+00   2.903553E+00   2.799544E+00   2.721310E+00   2.671158E+00   2.639098E+00   2.636773E+00   2.670481E+00   2.738936E+00   2.823229E+00   2.910403E+00   2.960965E+00   2.976574E+00   2.960736E+00   2.945927E+00   2.945287E+00   2.983344E+00   3.057980E+00   3.184777E+00   3.341706E+00   3.498987E+00   3.627341E+00   3.703150E+00   3.705313E+00   3.643288E+00   3.534819E+00   3.393944E+00   3.237482E+00   3.073842E+00   2.923801E+00   2.788035E+00   2.690892E+00   2.641327E+00   2.635834E+00   2.664873E+00   2.728952E+00   2.799663E+00   2.865891E+00   2.917893E+00   2.931115E+00   2.906017E+00   2.851622E+00   2.781773E+00   2.705065E+00   2.636827E+00   2.599453E+00   2.599422E+00   2.654089E+00   2.770044E+00   2.936065E+00   3.119579E+00   3.299068E+00   3.442550E+00   3.518589E+00   3.534516E+00   3.508863E+00   3.444905E+00   3.340882E+00   3.192790E+00   3.013077E+00   2.849443E+00   2.706694E+00   2.596211E+00   2.518805E+00   2.464333E+00   2.428323E+00   2.404619E+00   2.406807E+00   2.422124E+00   2.448436E+00   2.486516E+00   2.553051E+00   2.621523E+00   2.697828E+00   2.789322E+00   2.882677E+00   2.999944E+00   3.140467E+00   3.319213E+00   3.523341E+00   3.752848E+00   3.990932E+00   4.187195E+00   4.354878E+00   4.460704E+00   4.499110E+00   4.505082E+00   4.484570E+00   4.418691E+00   4.309536E+00   4.154535E+00   4.001693E+00   3.840537E+00   3.701969E+00   3.601230E+00   3.565949E+00   3.585111E+00   3.674769E+00   3.811748E+00   4.004339E+00   4.233192E+00   4.505860E+00   4.817243E+00   5.152193E+00   5.489996E+00   5.837596E+00   6.113759E+00   6.269285E+00   6.251785E+00   6.082443E+00   5.759697E+00   5.355989E+00   4.928495E+00   4.505301E+00   4.099607E+00   3.720915E+00   3.369128E+00   3.066808E+00   2.811530E+00   2.601451E+00   2.445841E+00   2.332666E+00   2.270977E+00   2.255194E+00   2.288563E+00   2.376547E+00   2.523685E+00   2.715746E+00   2.945227E+00   3.191228E+00   3.443658E+00   3.689377E+00   3.913744E+00   4.080299E+00   4.193082E+00   4.246905E+00   4.279623E+00   4.268540E+00   4.247960E+00   4.206670E+00   4.172629E+00   4.135152E+00   4.107955E+00   4.081206E+00   4.088448E+00   4.122710E+00   4.193569E+00   4.301035E+00   4.423756E+00   4.541269E+00   4.623119E+00   4.633976E+00   4.598009E+00   4.522647E+00   4.414607E+00   4.300241E+00   4.189167E+00   4.089338E+00
   3.927830E+00   3.860733E+00   3.788792E+00   3.723418E+00   3.643986E+00   3.575381E+00   3.507528E+00   3.460542E+00   3.413038E+00   3.348159E+00   3.263488E+00   3.164767E+00   3.053519E+00   2.956835E+00   2.865496E+00   2.792015E+00   2.733963E+00   2.716894E+00   2.735380E+00   2.798653E+00   2.882390E+00   2.998400E+00   3.128630E+00   3.293669E+00   3.480987E+00   3.681736E+00   3.901895E+00   4.138423E+00   4.358617E+00   4.559300E+00   4.716089E+00   4.836978E+00   4.928617E+00   4.954193E+00   4.886209E+00   4.748811E+00   4.528677E+00   4.226656E+00   3.907963E+00   3.603968E+00   3.350803E+00   3.144436E+00   2.970684E+00   2.836964E+00   2.728229E+00   2.642763E+00   2.593842E+00   2.572671E+00   2.599938E+00   2.667259E+00   2.776468E+00   2.913813E+00   3.052046E+00   3.166542E+00   3.228614E+00   3.264470E+00   3.281816E+00   3.301745E+00   3.351545E+00   3.446209E+00   3.577077E+00   3.732794E+00   3.894787E+00   4.003006E+00   4.042912E+00   3.995633E+00   3.872887E+00   3.711067E+00   3.517878E+00   3.313231E+00   3.125188E+00   2.946185E+00   2.803065E+00   2.694167E+00   2.638599E+00   2.633818E+00   2.659163E+00   2.716348E+00   2.789516E+00   2.847172E+00   2.889384E+00   2.890159E+00   2.852652E+00   2.789819E+00   2.706661E+00   2.613848E+00   2.526771E+00   2.465575E+00   2.452586E+00   2.498161E+00   2.602068E+00   2.761194E+00   2.956251E+00   3.156696E+00   3.335572E+00   3.461143E+00   3.530947E+00   3.550863E+00   3.522563E+00   3.436973E+00   3.299701E+00   3.144007E+00   2.984504E+00   2.847727E+00   2.743739E+00   2.675360E+00   2.636024E+00   2.606041E+00   2.594682E+00   2.592133E+00   2.609211E+00   2.639232E+00   2.691133E+00   2.750523E+00   2.812670E+00   2.870267E+00   2.920866E+00   2.980437E+00   3.059955E+00   3.168733E+00   3.312729E+00   3.482214E+00   3.678637E+00   3.871151E+00   4.035677E+00   4.142322E+00   4.184772E+00   4.175688E+00   4.162940E+00   4.129501E+00   4.091718E+00   4.017606E+00   3.917300E+00   3.791270E+00   3.648167E+00   3.509196E+00   3.404933E+00   3.358287E+00   3.388974E+00   3.479926E+00   3.632465E+00   3.854332E+00   4.108102E+00   4.401178E+00   4.727463E+00   5.082005E+00   5.440627E+00   5.797237E+00   6.092680E+00   6.275356E+00   6.310931E+00   6.158704E+00   5.832894E+00   5.430470E+00   4.999213E+00   4.559404E+00   4.133875E+00   3.732519E+00   3.385977E+00   3.081289E+00   2.821759E+00   2.606903E+00   2.437577E+00   2.311672E+00   2.234580E+00   2.206745E+00   2.236028E+00   2.315382E+00   2.456340E+00   2.644505E+00   2.873864E+00   3.128450E+00   3.389635E+00   3.644869E+00   3.861588E+00   4.030364E+00   4.143090E+00   4.209468E+00   4.220468E+00   4.216216E+00   4.168121E+00   4.131318E+00   4.083930E+00   4.053504E+00   4.027427E+00   4.034316E+00   4.065741E+00   4.130397E+00   4.237725E+00   4.388569E+00   4.553110E+00   4.687795E+00   4.764461E+00   4.776429E+00   4.729407E+00   4.654733E+00   4.559145E+00   4.432552E+00   4.291521E+00   4.145086E+00
   3.979299E+00   3.956216E+00   3.916291E+00   3.846416E+00   3.787578E+00   3.702660E+00   3.640835E+00   3.585718E+00   3.539069E+00   3.470364E+00   3.375140E+00   3.261227E+00   3.137532E+00   3.033069E+00   2.943452E+00   2.872084E+00   2.820098E+00   2.791347E+00   2.820657E+00   2.884166E+00   2.985149E+00   3.111180E+00   3.237823E+00   3.392307E+00   3.557593E+00   3.740751E+00   3.941952E+00   4.131094E+00   4.331217E+00   4.528949E+00   4.721992E+00   4.875878E+00   4.993460E+00   5.067539E+00   5.074024E+00   4.979791E+00   4.778527E+00   4.475173E+00   4.123594E+00   3.773372E+00   3.476045E+00   3.219175E+00   3.016165E+00   2.855092E+00   2.731578E+00   2.650747E+00   2.602307E+00   2.606556E+00   2.659111E+00   2.753972E+00   2.901912E+00   3.083720E+00   3.264906E+00   3.425659E+00   3.536031E+00   3.601106E+00   3.641197E+00   3.671180E+00   3.742467E+00   3.855581E+00   4.003756E+00   4.174252E+00   4.336385E+00   4.434997E+00   4.438019E+00   4.351564E+00   4.188918E+00   3.979989E+00   3.749607E+00   3.520365E+00   3.295660E+00   3.104492E+00   2.943788E+00   2.832649E+00   2.759827E+00   2.730242E+00   2.735202E+00   2.771697E+00   2.823684E+00   2.866558E+00   2.880100E+00   2.862458E+00   2.808194E+00   2.741555E+00   2.651016E+00   2.550591E+00   2.459901E+00   2.393868E+00   2.382161E+00   2.432425E+00   2.542792E+00   2.699203E+00   2.900749E+00   3.110583E+00   3.316484E+00   3.494409E+00   3.620973E+00   3.674248E+00   3.670699E+00   3.599609E+00   3.483902E+00   3.343915E+00   3.200188E+00   3.071888E+00   2.981883E+00   2.925915E+00   2.895656E+00   2.879282E+00   2.873793E+00   2.873026E+00   2.885211E+00   2.914167E+00   2.965083E+00   3.022211E+00   3.065953E+00   3.107971E+00   3.121638E+00   3.138399E+00   3.169865E+00   3.220319E+00   3.307675E+00   3.420066E+00   3.552463E+00   3.682198E+00   3.773637E+00   3.813446E+00   3.801874E+00   3.770854E+00   3.743593E+00   3.736395E+00   3.735275E+00   3.735927E+00   3.699080E+00   3.620133E+00   3.521213E+00   3.398211E+00   3.291781E+00   3.229645E+00   3.249719E+00   3.343563E+00   3.512841E+00   3.753809E+00   4.030571E+00   4.332911E+00   4.645902E+00   4.978762E+00   5.325907E+00   5.670547E+00   5.978501E+00   6.190422E+00   6.240182E+00   6.110795E+00   5.835173E+00   5.473158E+00   5.047822E+00   4.617916E+00   4.185814E+00   3.798589E+00   3.451790E+00   3.153725E+00   2.899936E+00   2.673487E+00   2.492698E+00   2.357535E+00   2.272969E+00   2.236810E+00   2.258463E+00   2.327634E+00   2.455990E+00   2.632562E+00   2.854599E+00   3.111689E+00   3.386556E+00   3.643664E+00   3.849282E+00   4.000383E+00   4.092609E+00   4.132002E+00   4.142937E+00   4.116465E+00   4.074807E+00   4.032679E+00   3.995548E+00   3.960418E+00   3.949990E+00   3.955472E+00   4.000953E+00   4.076383E+00   4.203293E+00   4.372553E+00   4.537455E+00   4.675901E+00   4.759389E+00   4.768433E+00   4.728240E+00   4.656015E+00   4.566924E+00   4.446589E+00   4.311315E+00   4.159029E+00
   4.043986E+00   4.084339E+00   4.071689E+00   4.037626E+00   3.961325E+00   3.885562E+00   3.814135E+00   3.760036E+00   3.693583E+00   3.604672E+00   3.480624E+00   3.350703E+00   3.221848E+00   3.114594E+00   3.028122E+00   2.968942E+00   2.914082E+00   2.901410E+00   2.924872E+00   2.989655E+00   3.088826E+00   3.215145E+00   3.342829E+00   3.479460E+00   3.628059E+00   3.798184E+00   3.966453E+00   4.148325E+00   4.342300E+00   4.552104E+00   4.756460E+00   4.954646E+00   5.104981E+00   5.217264E+00   5.243479E+00   5.179771E+00   5.008790E+00   4.736098E+00   4.380438E+00   4.003744E+00   3.651735E+00   3.363783E+00   3.126793E+00   2.945212E+00   2.819802E+00   2.736061E+00   2.707337E+00   2.717144E+00   2.787674E+00   2.909476E+00   3.080969E+00   3.272961E+00   3.458849E+00   3.629172E+00   3.748846E+00   3.827096E+00   3.875316E+00   3.941944E+00   4.036972E+00   4.176457E+00   4.367441E+00   4.566733E+00   4.749670E+00   4.856611E+00   4.848068E+00   4.724429E+00   4.530598E+00   4.301677E+00   4.057209E+00   3.805856E+00   3.578035E+00   3.378743E+00   3.201797E+00   3.065593E+00   2.967892E+00   2.905559E+00   2.885819E+00   2.880319E+00   2.895892E+00   2.904528E+00   2.899623E+00   2.858799E+00   2.798288E+00   2.723886E+00   2.642724E+00   2.554991E+00   2.475637E+00   2.430589E+00   2.431379E+00   2.496981E+00   2.613657E+00   2.782106E+00   2.976038E+00   3.193524E+00   3.412383E+00   3.608251E+00   3.763564E+00   3.838132E+00   3.843003E+00   3.784765E+00   3.672681E+00   3.546813E+00   3.415856E+00   3.298615E+00   3.212332E+00   3.164460E+00   3.148689E+00   3.143481E+00   3.147755E+00   3.159658E+00   3.178626E+00   3.207256E+00   3.259874E+00   3.310570E+00   3.339993E+00   3.345315E+00   3.323923E+00   3.287165E+00   3.257544E+00   3.244158E+00   3.258885E+00   3.297066E+00   3.353440E+00   3.409144E+00   3.441398E+00   3.443398E+00   3.414414E+00   3.381572E+00   3.374480E+00   3.389754E+00   3.444502E+00   3.502505E+00   3.535396E+00   3.518985E+00   3.461917E+00   3.369583E+00   3.284431E+00   3.227893E+00   3.243010E+00   3.322513E+00   3.491035E+00   3.741730E+00   4.034437E+00   4.338914E+00   4.636652E+00   4.932041E+00   5.240213E+00   5.557465E+00   5.847270E+00   6.060187E+00   6.143850E+00   6.063575E+00   5.840760E+00   5.502376E+00   5.103155E+00   4.675919E+00   4.270147E+00   3.886472E+00   3.560514E+00   3.278433E+00   3.028730E+00   2.794074E+00   2.601346E+00   2.452833E+00   2.352540E+00   2.309560E+00   2.314576E+00   2.383043E+00   2.500280E+00   2.669624E+00   2.872622E+00   3.123460E+00   3.385864E+00   3.628175E+00   3.815625E+00   3.944588E+00   4.012447E+00   4.036170E+00   4.032249E+00   3.990596E+00   3.961204E+00   3.941375E+00   3.915266E+00   3.893625E+00   3.876074E+00   3.878721E+00   3.914301E+00   3.979293E+00   4.088757E+00   4.229610E+00   4.382137E+00   4.501241E+00   4.581792E+00   4.594343E+00   4.575956E+00   4.527641E+00   4.442790E+00   4.360804E+00   4.255094E+00   4.139240E+00
   4.118236E+00   4.210928E+00   4.262924E+00   4.250334E+00   4.208892E+00   4.125595E+00   4.065671E+00   3.997907E+00   3.909774E+00   3.780126E+00   3.619246E+00   3.459439E+00   3.315784E+00   3.197112E+00   3.116101E+00   3.068582E+00   3.036582E+00   3.024874E+00   3.038039E+00   3.091660E+00   3.171206E+00   3.276978E+00   3.404374E+00   3.532800E+00   3.673211E+00   3.817303E+00   3.980827E+00   4.160269E+00   4.384022E+00   4.596790E+00   4.814051E+00   5.005985E+00   5.181437E+00   5.289137E+00   5.335638E+00   5.284888E+00   5.155867E+00   4.924803E+00   4.611428E+00   4.239298E+00   3.877579E+00   3.554403E+00   3.295320E+00   3.101414E+00   2.960116E+00   2.877592E+00   2.847339E+00   2.877153E+00   2.958252E+00   3.078906E+00   3.238927E+00   3.414510E+00   3.596304E+00   3.737315E+00   3.843682E+00   3.910917E+00   3.974310E+00   4.058974E+00   4.188405E+00   4.377175E+00   4.612549E+00   4.859780E+00   5.051993E+00   5.165278E+00   5.162464E+00   5.044611E+00   4.843291E+00   4.610682E+00   4.366328E+00   4.127951E+00   3.917050E+00   3.720326E+00   3.535030E+00   3.382040E+00   3.238287E+00   3.137960E+00   3.067859E+00   3.019822E+00   2.986252E+00   2.955384E+00   2.920597E+00   2.867050E+00   2.804454E+00   2.742066E+00   2.669351E+00   2.616701E+00   2.576061E+00   2.565951E+00   2.601353E+00   2.681946E+00   2.829045E+00   3.010886E+00   3.223276E+00   3.450277E+00   3.653814E+00   3.813225E+00   3.943332E+00   4.020657E+00   4.009225E+00   3.952407E+00   3.841637E+00   3.726301E+00   3.609993E+00   3.506199E+00   3.425580E+00   3.373096E+00   3.342536E+00   3.343640E+00   3.354096E+00   3.379648E+00   3.413128E+00   3.449187E+00   3.491993E+00   3.512722E+00   3.510747E+00   3.485578E+00   3.432249E+00   3.357767E+00   3.269626E+00   3.189199E+00   3.131962E+00   3.099548E+00   3.090563E+00   3.085533E+00   3.076686E+00   3.063747E+00   3.045606E+00   3.045988E+00   3.069350E+00   3.128605E+00   3.219418E+00   3.329445E+00   3.413012E+00   3.460525E+00   3.453848E+00   3.415665E+00   3.354487E+00   3.319594E+00   3.333760E+00   3.424984E+00   3.583386E+00   3.818091E+00   4.091034E+00   4.376233E+00   4.642787E+00   4.915177E+00   5.189253E+00   5.481993E+00   5.739478E+00   5.937178E+00   6.021291E+00   5.969693E+00   5.783741E+00   5.507125E+00   5.158811E+00   4.774363E+00   4.399096E+00   4.037483E+00   3.708160E+00   3.425587E+00   3.169621E+00   2.936641E+00   2.729971E+00   2.577167E+00   2.473248E+00   2.423491E+00   2.431303E+00   2.486022E+00   2.602525E+00   2.752764E+00   2.949675E+00   3.173790E+00   3.410018E+00   3.627831E+00   3.805009E+00   3.902064E+00   3.956246E+00   3.969513E+00   3.954155E+00   3.918514E+00   3.893788E+00   3.873469E+00   3.862960E+00   3.836886E+00   3.818672E+00   3.803105E+00   3.816463E+00   3.857948E+00   3.934514E+00   4.038284E+00   4.145663E+00   4.244300E+00   4.295700E+00   4.320949E+00   4.320942E+00   4.298318E+00   4.258379E+00   4.217233E+00   4.165426E+00   4.084821E+00