# LPF package for  MODFLOW-2005, generated by Flopy.
         0    -1E+30         0  
         0
         0
   1.000000E+00
         0
         0
INTERNAL               1 (200E15.6) -1 #hk layer 1                    
   3.962786E+00   3.935258E+00   3.904596E+00   3.862572E+00   3.833813E+00   3.813371E+00   3.801995E+00   3.789230E+00   3.787597E+00   3.761327E+00   3.731888E+00   3.688868E+00   3.641648E+00   3.585255E+00   3.527675E+00   3.488787E+00   3.471289E+00   3.475615E+00   3.487879E+00   3.514987E+00   3.555506E+00   3.610241E+00   3.676276E+00   3.769787E+00   3.856469E+00   3.942644E+00   4.024004E+00   4.102570E+00   4.173306E+00   4.228793E+00   4.263375E+00   4.278046E+00   4.262351E+00   4.208619E+00   4.143992E+00   4.060915E+00   3.983535E+00   3.902378E+00   3.837219E+00   3.780325E+00   3.734299E+00   3.704978E+00   3.677633E+00   3.641453E+00   3.612153E+00   3.596238E+00   3.597889E+00   3.596468E+00   3.597099E+00   3.587743E+00   3.565969E+00   3.538575E+00   3.502720E+00   3.461036E+00   3.425290E+00   3.380528E+00   3.348195E+00   3.330741E+00   3.342685E+00   3.384850E+00   3.437932E+00   3.508664E+00   3.588966E+00   3.667480E+00   3.724806E+00   3.774047E+00   3.803616E+00   3.823849E+00   3.825808E+00   3.805877E+00   3.768463E+00   3.724098E+00   3.683747E+00   3.658715E+00   3.654636E+00   3.647095E+00   3.655381E+00   3.651700E+00   3.644517E+00   3.635099E+00   3.635692E+00   3.623658E+00   3.611301E+00   3.599339E+00   3.582930E+00   3.572067E+00   3.569829E+00   3.582134E+00   3.598085E+00   3.648870E+00   3.714729E+00   3.790723E+00   3.863090E+00   3.918127E+00   3.937859E+00   3.934086E+00   3.911601E+00   3.867984E+00   3.820032E+00   3.755095E+00   3.688685E+00   3.614269E+00   3.538749E+00   3.483471E+00   3.436752E+00   3.398561E+00   3.375383E+00   3.354275E+00   3.352320E+00   3.340793E+00   3.328519E+00   3.308826E+00   3.299242E+00   3.304924E+00   3.313776E+00   3.343944E+00   3.403369E+00   3.481893E+00   3.577425E+00   3.681917E+00   3.773174E+00   3.873438E+00   3.963087E+00   4.047422E+00   4.127152E+00   4.192677E+00   4.268301E+00   4.325287E+00   4.356931E+00   4.373236E+00   4.360434E+00   4.335798E+00   4.308598E+00   4.267816E+00   4.213196E+00   4.169277E+00   4.111274E+00   4.072552E+00   4.050665E+00   4.051804E+00   4.074506E+00   4.107069E+00   4.159048E+00   4.213555E+00   4.279744E+00   4.349325E+00   4.431609E+00   4.525407E+00   4.590949E+00   4.617191E+00   4.596116E+00   4.545623E+00   4.458154E+00   4.371213E+00   4.269519E+00   4.164262E+00   4.064271E+00   3.962343E+00   3.866729E+00   3.760931E+00   3.673729E+00   3.573217E+00   3.493950E+00   3.440115E+00   3.401960E+00   3.385170E+00   3.389201E+00   3.415264E+00   3.461454E+00   3.544963E+00   3.647815E+00   3.756908E+00   3.870653E+00   3.969650E+00   4.043505E+00   4.094738E+00   4.129300E+00   4.160678E+00   4.187164E+00   4.202210E+00   4.222030E+00   4.238132E+00   4.251536E+00   4.250243E+00   4.238760E+00   4.202064E+00   4.152983E+00   4.089849E+00   4.032003E+00   3.993594E+00   3.975547E+00   3.977393E+00   3.985321E+00   4.000359E+00   4.005203E+00   4.010260E+00   4.009946E+00   3.991187E+00   3.983182E+00   3.979283E+00
   3.931080E+00   3.887707E+00   3.829751E+00   3.762537E+00   3.694449E+00   3.655387E+00   3.623356E+00   3.599546E+00   3.585254E+00   3.568822E+00   3.517948E+00   3.458722E+00   3.366090E+00   3.277506E+00   3.188965E+00   3.124307E+00   3.088115E+00   3.089482E+00   3.108919E+00   3.145990E+00   3.206984E+00   3.294860E+00   3.408920E+00   3.546209E+00   3.701326E+00   3.869411E+00   4.044181E+00   4.212849E+00   4.363786E+00   4.476684E+00   4.542586E+00   4.578331E+00   4.539238E+00   4.449775E+00   4.313643E+00   4.166754E+00   4.016724E+00   3.866280E+00   3.721079E+00   3.617091E+00   3.531960E+00   3.477489E+00   3.426565E+00   3.378124E+00   3.326924E+00   3.299435E+00   3.291469E+00   3.285620E+00   3.282969E+00   3.269614E+00   3.242110E+00   3.198277E+00   3.152110E+00   3.091776E+00   3.019356E+00   2.953142E+00   2.904840E+00   2.881450E+00   2.896949E+00   2.955925E+00   3.048342E+00   3.177456E+00   3.316415E+00   3.439285E+00   3.540742E+00   3.620017E+00   3.659555E+00   3.670624E+00   3.654248E+00   3.607496E+00   3.536546E+00   3.462808E+00   3.394618E+00   3.346411E+00   3.318075E+00   3.305589E+00   3.306645E+00   3.317157E+00   3.330648E+00   3.344553E+00   3.346056E+00   3.339528E+00   3.320128E+00   3.291377E+00   3.255354E+00   3.223908E+00   3.214061E+00   3.223020E+00   3.256690E+00   3.326473E+00   3.449274E+00   3.571289E+00   3.707742E+00   3.807822E+00   3.860542E+00   3.865575E+00   3.817183E+00   3.747894E+00   3.658674E+00   3.552957E+00   3.435993E+00   3.309206E+00   3.182725E+00   3.081995E+00   3.002704E+00   2.939514E+00   2.898974E+00   2.875522E+00   2.857783E+00   2.842544E+00   2.823034E+00   2.810420E+00   2.814421E+00   2.823927E+00   2.855686E+00   2.913196E+00   2.996940E+00   3.108384E+00   3.251766E+00   3.408278E+00   3.571064E+00   3.748652E+00   3.920111E+00   4.087107E+00   4.236522E+00   4.382040E+00   4.511974E+00   4.608464E+00   4.649107E+00   4.659623E+00   4.639695E+00   4.594216E+00   4.519689E+00   4.416210E+00   4.310094E+00   4.213023E+00   4.140606E+00   4.087209E+00   4.074285E+00   4.089135E+00   4.139503E+00   4.223348E+00   4.298003E+00   4.407602E+00   4.526572E+00   4.681734E+00   4.855416E+00   5.038739E+00   5.183465E+00   5.231236E+00   5.196218E+00   5.073382E+00   4.905868E+00   4.711030E+00   4.497930E+00   4.285142E+00   4.077656E+00   3.883946E+00   3.689837E+00   3.513458E+00   3.339395E+00   3.195184E+00   3.067281E+00   2.986362E+00   2.935889E+00   2.911026E+00   2.919250E+00   2.971787E+00   3.068460E+00   3.208135E+00   3.374132E+00   3.558352E+00   3.746656E+00   3.909763E+00   4.045664E+00   4.142230E+00   4.213151E+00   4.270480E+00   4.312793E+00   4.347621E+00   4.378883E+00   4.414254E+00   4.424586E+00   4.419809E+00   4.381682E+00   4.328388E+00   4.247516E+00   4.152844E+00   4.068283E+00   4.004862E+00   4.003993E+00   4.018896E+00   4.044916E+00   4.059649E+00   4.058064E+00   4.054843E+00   4.036899E+00   4.011773E+00   3.986714E+00   3.982317E+00
   3.911419E+00   3.831460E+00   3.749038E+00   3.665215E+00   3.598258E+00   3.527295E+00   3.481801E+00   3.447859E+00   3.426004E+00   3.389455E+00   3.341901E+00   3.261216E+00   3.174306E+00   3.070306E+00   2.974431E+00   2.897155E+00   2.853208E+00   2.845931E+00   2.866192E+00   2.912483E+00   2.976475E+00   3.079165E+00   3.215749E+00   3.387521E+00   3.576944E+00   3.793258E+00   4.037842E+00   4.276425E+00   4.495236E+00   4.657235E+00   4.768044E+00   4.801131E+00   4.762486E+00   4.652339E+00   4.500231E+00   4.292639E+00   4.082026E+00   3.862906E+00   3.679751E+00   3.528394E+00   3.415795E+00   3.325117E+00   3.258971E+00   3.194390E+00   3.126852E+00   3.063646E+00   3.039059E+00   3.014046E+00   3.012118E+00   3.011102E+00   3.004570E+00   2.979395E+00   2.953294E+00   2.897968E+00   2.834855E+00   2.772758E+00   2.717926E+00   2.691932E+00   2.709759E+00   2.779131E+00   2.893587E+00   3.038404E+00   3.196656E+00   3.347422E+00   3.464799E+00   3.536193E+00   3.565078E+00   3.554373E+00   3.504976E+00   3.429268E+00   3.323355E+00   3.222283E+00   3.129424E+00   3.062721E+00   3.020808E+00   3.000571E+00   3.008500E+00   3.033311E+00   3.074441E+00   3.110947E+00   3.130892E+00   3.131276E+00   3.116439E+00   3.073954E+00   3.034109E+00   2.993088E+00   2.964740E+00   2.957505E+00   2.984290E+00   3.066484E+00   3.196029E+00   3.361805E+00   3.523458E+00   3.667444E+00   3.738362E+00   3.748024E+00   3.707349E+00   3.629370E+00   3.533437E+00   3.403167E+00   3.255642E+00   3.101741E+00   2.953033E+00   2.817267E+00   2.714417E+00   2.633827E+00   2.576700E+00   2.543633E+00   2.525834E+00   2.512211E+00   2.502280E+00   2.501064E+00   2.520389E+00   2.552311E+00   2.595190E+00   2.671812E+00   2.769001E+00   2.892391E+00   3.055954E+00   3.236909E+00   3.429817E+00   3.652861E+00   3.878094E+00   4.097939E+00   4.299624E+00   4.472581E+00   4.633565E+00   4.739049E+00   4.801092E+00   4.800177E+00   4.755605E+00   4.667451E+00   4.542352E+00   4.403865E+00   4.263210E+00   4.145735E+00   4.047776E+00   4.002866E+00   3.998501E+00   4.043694E+00   4.128890E+00   4.227824E+00   4.360313E+00   4.515958E+00   4.711805E+00   4.935627E+00   5.205895E+00   5.456274E+00   5.644326E+00   5.718292E+00   5.676203E+00   5.513592E+00   5.266554E+00   4.982092E+00   4.678134E+00   4.378340E+00   4.085122E+00   3.801456E+00   3.529395E+00   3.281593E+00   3.065833E+00   2.875633E+00   2.743345E+00   2.652238E+00   2.600402E+00   2.586839E+00   2.616889E+00   2.692859E+00   2.816160E+00   2.983910E+00   3.191659E+00   3.408272E+00   3.631816E+00   3.835880E+00   4.016015E+00   4.145731E+00   4.243262E+00   4.308972E+00   4.360934E+00   4.399457E+00   4.422430E+00   4.429915E+00   4.436835E+00   4.415084E+00   4.373633E+00   4.306006E+00   4.231333E+00   4.167085E+00   4.107397E+00   4.083086E+00   4.095484E+00   4.140469E+00   4.191284E+00   4.206286E+00   4.196274E+00   4.158112E+00   4.116560E+00   4.076021E+00   4.039250E+00   4.009614E+00
   3.896351E+00   3.807992E+00   3.706542E+00   3.616955E+00   3.543839E+00   3.483065E+00   3.426020E+00   3.385861E+00   3.348048E+00   3.304461E+00   3.237186E+00   3.161641E+00   3.060056E+00   2.958349E+00   2.860843E+00   2.788036E+00   2.737944E+00   2.722078E+00   2.738883E+00   2.785591E+00   2.847036E+00   2.944250E+00   3.081245E+00   3.263828E+00   3.476335E+00   3.718138E+00   3.983511E+00   4.264771E+00   4.516553E+00   4.716336E+00   4.850320E+00   4.915613E+00   4.877567E+00   4.796617E+00   4.626929E+00   4.407363E+00   4.159132E+00   3.904043E+00   3.670907E+00   3.491850E+00   3.347370E+00   3.228673E+00   3.124379E+00   3.028149E+00   2.943621E+00   2.872971E+00   2.827104E+00   2.791423E+00   2.786638E+00   2.800171E+00   2.825035E+00   2.848034E+00   2.864309E+00   2.863531E+00   2.830241E+00   2.784851E+00   2.741600E+00   2.726039E+00   2.748752E+00   2.821373E+00   2.940931E+00   3.095201E+00   3.255715E+00   3.400851E+00   3.503853E+00   3.550414E+00   3.540226E+00   3.482362E+00   3.396175E+00   3.282956E+00   3.157288E+00   3.024323E+00   2.913998E+00   2.824548E+00   2.780945E+00   2.771803E+00   2.795029E+00   2.835530E+00   2.895333E+00   2.947190E+00   2.991880E+00   3.007889E+00   2.995632E+00   2.954909E+00   2.893947E+00   2.836732E+00   2.786484E+00   2.764059E+00   2.783627E+00   2.851540E+00   2.984448E+00   3.145007E+00   3.331040E+00   3.491451E+00   3.600299E+00   3.639890E+00   3.615963E+00   3.548155E+00   3.453277E+00   3.323299E+00   3.168857E+00   2.995602E+00   2.832726E+00   2.694773E+00   2.574018E+00   2.487943E+00   2.434046E+00   2.393610E+00   2.380986E+00   2.366941E+00   2.370529E+00   2.385075E+00   2.415789E+00   2.466031E+00   2.529840E+00   2.616126E+00   2.714310E+00   2.835464E+00   2.981830E+00   3.154917E+00   3.350163E+00   3.571300E+00   3.813409E+00   4.059247E+00   4.280872E+00   4.464479E+00   4.609214E+00   4.704542E+00   4.742169E+00   4.729673E+00   4.663016E+00   4.552513E+00   4.401031E+00   4.237116E+00   4.083378E+00   3.945645E+00   3.857464E+00   3.808311E+00   3.817292E+00   3.888633E+00   4.006137E+00   4.150969E+00   4.330156E+00   4.554554E+00   4.812373E+00   5.115528E+00   5.423324E+00   5.738437E+00   5.979991E+00   6.086016E+00   6.045083E+00   5.856931E+00   5.552197E+00   5.189461E+00   4.811133E+00   4.452717E+00   4.093349E+00   3.749218E+00   3.425619E+00   3.138993E+00   2.889781E+00   2.701006E+00   2.551089E+00   2.445501E+00   2.391863E+00   2.380587E+00   2.413070E+00   2.497830E+00   2.634298E+00   2.831412E+00   3.050130E+00   3.292050E+00   3.531979E+00   3.766500E+00   3.957985E+00   4.112956E+00   4.209089E+00   4.281237E+00   4.318746E+00   4.338850E+00   4.336799E+00   4.334291E+00   4.302366E+00   4.280241E+00   4.230807E+00   4.188820E+00   4.154628E+00   4.129166E+00   4.138263E+00   4.184793E+00   4.258483E+00   4.340628E+00   4.393774E+00   4.415441E+00   4.385950E+00   4.323253E+00   4.236997E+00   4.156039E+00   4.091982E+00   4.036543E+00
   3.901717E+00   3.809749E+00   3.712934E+00   3.630064E+00   3.558326E+00   3.492736E+00   3.437792E+00   3.386298E+00   3.349732E+00   3.288414E+00   3.216076E+00   3.121316E+00   3.023247E+00   2.922532E+00   2.831242E+00   2.753142E+00   2.701783E+00   2.678863E+00   2.699952E+00   2.742744E+00   2.817831E+00   2.926698E+00   3.056391E+00   3.230368E+00   3.438422E+00   3.675484E+00   3.932578E+00   4.187588E+00   4.435204E+00   4.641686E+00   4.791990E+00   4.872010E+00   4.908281E+00   4.864076E+00   4.746102E+00   4.553466E+00   4.323324E+00   4.029689E+00   3.758609E+00   3.508300E+00   3.313744E+00   3.156402E+00   3.022554E+00   2.903714E+00   2.799744E+00   2.721535E+00   2.671391E+00   2.639320E+00   2.636967E+00   2.670630E+00   2.739024E+00   2.823244E+00   2.910335E+00   2.960809E+00   2.976327E+00   2.960406E+00   2.945517E+00   2.944799E+00   2.982770E+00   3.057312E+00   3.184004E+00   3.340824E+00   3.498000E+00   3.626273E+00   3.702039E+00   3.704203E+00   3.642217E+00   3.533822E+00   3.393037E+00   3.236679E+00   3.073154E+00   2.923226E+00   2.787564E+00   2.690512E+00   2.641024E+00   2.635591E+00   2.664673E+00   2.728777E+00   2.799496E+00   2.865716E+00   2.917698E+00   2.930897E+00   2.905768E+00   2.851341E+00   2.781450E+00   2.704697E+00   2.636412E+00   2.598987E+00   2.598898E+00   2.653501E+00   2.769375E+00   2.935299E+00   3.118718E+00   3.298129E+00   3.441568E+00   3.517616E+00   3.533597E+00   3.508039E+00   3.444205E+00   3.340326E+00   3.192382E+00   3.012803E+00   2.849277E+00   2.706605E+00   2.596172E+00   2.518798E+00   2.464342E+00   2.428341E+00   2.404640E+00   2.406830E+00   2.422152E+00   2.448478E+00   2.486584E+00   2.553156E+00   2.621676E+00   2.698044E+00   2.789611E+00   2.883047E+00   3.000405E+00   3.141023E+00   3.319869E+00   3.524104E+00   3.753726E+00   3.991918E+00   4.188265E+00   4.356019E+00   4.461895E+00   4.500326E+00   4.506314E+00   4.485807E+00   4.419915E+00   4.310730E+00   4.155679E+00   4.002771E+00   3.841540E+00   3.702902E+00   3.602107E+00   3.566789E+00   3.585924E+00   3.675576E+00   3.812561E+00   4.005170E+00   4.234043E+00   4.506724E+00   4.818120E+00   5.153074E+00   5.490871E+00   5.838452E+00   6.114571E+00   6.270023E+00   6.252420E+00   6.082958E+00   5.760084E+00   5.356262E+00   4.928689E+00   4.505436E+00   4.099709E+00   3.721000E+00   3.369205E+00   3.066884E+00   2.811608E+00   2.601533E+00   2.445923E+00   2.332744E+00   2.271041E+00   2.255239E+00   2.288578E+00   2.376523E+00   2.523613E+00   2.715613E+00   2.945021E+00   3.190933E+00   3.443264E+00   3.688887E+00   3.913156E+00   4.079621E+00   4.192327E+00   4.246098E+00   4.278781E+00   4.267693E+00   4.247126E+00   4.205872E+00   4.171868E+00   4.134436E+00   4.107279E+00   4.080572E+00   4.087851E+00   4.122145E+00   4.193035E+00   4.300539E+00   4.423298E+00   4.540849E+00   4.622739E+00   4.633645E+00   4.597730E+00   4.522420E+00   4.414431E+00   4.300114E+00   4.189080E+00   4.089295E+00
   3.927648E+00   3.860379E+00   3.788275E+00   3.722749E+00   3.643179E+00   3.574457E+00   3.506512E+00   3.459454E+00   3.411904E+00   3.347014E+00   3.262370E+00   3.163712E+00   3.052550E+00   2.955958E+00   2.864708E+00   2.791307E+00   2.733320E+00   2.716294E+00   2.734811E+00   2.798094E+00   2.881835E+00   2.997849E+00   3.128086E+00   3.293135E+00   3.480480E+00   3.681275E+00   3.901491E+00   4.138073E+00   4.358317E+00   4.559033E+00   4.715848E+00   4.836745E+00   4.928375E+00   4.953932E+00   4.885931E+00   4.748519E+00   4.528391E+00   4.226392E+00   3.907743E+00   3.603809E+00   3.350716E+00   3.144419E+00   2.970737E+00   2.837080E+00   2.728392E+00   2.642955E+00   2.594045E+00   2.572866E+00   2.600103E+00   2.667370E+00   2.776506E+00   2.913756E+00   3.051882E+00   3.166264E+00   3.228224E+00   3.263975E+00   3.281220E+00   3.301053E+00   3.350751E+00   3.445306E+00   3.576059E+00   3.731658E+00   3.893541E+00   4.001687E+00   4.041564E+00   3.994304E+00   3.871620E+00   3.709888E+00   3.516808E+00   3.312284E+00   3.124369E+00   2.945496E+00   2.802493E+00   2.693696E+00   2.638212E+00   2.633497E+00   2.658894E+00   2.716114E+00   2.789301E+00   2.846962E+00   2.889168E+00   2.889933E+00   2.852412E+00   2.789553E+00   2.706359E+00   2.613505E+00   2.526383E+00   2.465139E+00   2.452096E+00   2.497611E+00   2.601441E+00   2.760476E+00   2.955431E+00   3.155786E+00   3.334603E+00   3.460173E+00   3.530029E+00   3.550042E+00   3.521872E+00   3.436436E+00   3.299317E+00   3.143761E+00   2.984370E+00   2.847677E+00   2.743744E+00   2.675402E+00   2.636085E+00   2.606112E+00   2.594753E+00   2.592199E+00   2.609274E+00   2.639300E+00   2.691216E+00   2.750633E+00   2.812824E+00   2.870480E+00   2.921147E+00   2.980793E+00   3.060396E+00   3.169268E+00   3.313368E+00   3.482966E+00   3.679510E+00   3.872138E+00   4.036754E+00   4.143463E+00   4.185947E+00   4.176872E+00   4.164127E+00   4.130681E+00   4.092883E+00   4.018739E+00   3.918387E+00   3.792293E+00   3.649112E+00   3.510067E+00   3.405738E+00   3.359041E+00   3.389697E+00   3.480633E+00   3.633175E+00   3.855060E+00   4.108843E+00   4.401923E+00   4.728203E+00   5.082740E+00   5.441350E+00   5.797939E+00   6.093347E+00   6.275966E+00   6.311463E+00   6.159138E+00   5.833218E+00   5.430702E+00   4.999375E+00   4.559517E+00   4.133955E+00   3.732585E+00   3.386039E+00   3.081355E+00   2.821828E+00   2.606971E+00   2.437639E+00   2.311725E+00   2.234615E+00   2.206756E+00   2.236001E+00   2.315302E+00   2.456193E+00   2.644276E+00   2.873541E+00   3.128021E+00   3.389092E+00   3.644215E+00   3.860830E+00   4.029510E+00   4.142164E+00   4.208490E+00   4.219464E+00   4.215207E+00   4.167137E+00   4.130366E+00   4.083015E+00   4.052623E+00   4.026583E+00   4.033505E+00   4.064967E+00   4.129646E+00   4.237000E+00   4.387875E+00   4.552458E+00   4.687196E+00   4.763927E+00   4.775962E+00   4.729011E+00   4.654402E+00   4.558882E+00   4.432355E+00   4.291395E+00   4.145026E+00
   3.979096E+00   3.955815E+00   3.915699E+00   3.845650E+00   3.786657E+00   3.701624E+00   3.639712E+00   3.584538E+00   3.537863E+00   3.469167E+00   3.373991E+00   3.260155E+00   3.136557E+00   3.032189E+00   2.942663E+00   2.871377E+00   2.819456E+00   2.790751E+00   2.820085E+00   2.883605E+00   2.984596E+00   3.110635E+00   3.237292E+00   3.391802E+00   3.557129E+00   3.740346E+00   3.941609E+00   4.130810E+00   4.330976E+00   4.528742E+00   4.721805E+00   4.875689E+00   4.993253E+00   5.067306E+00   5.073753E+00   4.979484E+00   4.778200E+00   4.474851E+00   4.123304E+00   3.773145E+00   3.475893E+00   3.219101E+00   3.016166E+00   2.855162E+00   2.731703E+00   2.650908E+00   2.602485E+00   2.606729E+00   2.659252E+00   2.754052E+00   2.901902E+00   3.083597E+00   3.264646E+00   3.425254E+00   3.535483E+00   3.600425E+00   3.640393E+00   3.670259E+00   3.741421E+00   3.854410E+00   4.002455E+00   4.172823E+00   4.334846E+00   4.433394E+00   4.436409E+00   4.349995E+00   4.187425E+00   3.978600E+00   3.748344E+00   3.519244E+00   3.294688E+00   3.103660E+00   2.943087E+00   2.832062E+00   2.759338E+00   2.729832E+00   2.734855E+00   2.771396E+00   2.823415E+00   2.866310E+00   2.879867E+00   2.862228E+00   2.807965E+00   2.741316E+00   2.650749E+00   2.550287E+00   2.459557E+00   2.393476E+00   2.381713E+00   2.431912E+00   2.542201E+00   2.698519E+00   2.899969E+00   3.109714E+00   3.315552E+00   3.493468E+00   3.620080E+00   3.673456E+00   3.670048E+00   3.599115E+00   3.483566E+00   3.343715E+00   3.200102E+00   3.071894E+00   2.981955E+00   2.926027E+00   2.895792E+00   2.879426E+00   2.873937E+00   2.873156E+00   2.885326E+00   2.914277E+00   2.965199E+00   3.022348E+00   3.066124E+00   3.108194E+00   3.121922E+00   3.138756E+00   3.170299E+00   3.220842E+00   3.308296E+00   3.420796E+00   3.553308E+00   3.683148E+00   3.774663E+00   3.814513E+00   3.802953E+00   3.771925E+00   3.744651E+00   3.737440E+00   3.736303E+00   3.736931E+00   3.700043E+00   3.621036E+00   3.522048E+00   3.398972E+00   3.292475E+00   3.230280E+00   3.250313E+00   3.344132E+00   3.513404E+00   3.754375E+00   4.031135E+00   4.333455E+00   4.646421E+00   4.979252E+00   5.326373E+00   5.670994E+00   5.978930E+00   6.190819E+00   6.240533E+00   6.111081E+00   5.835384E+00   5.473303E+00   5.047925E+00   4.617987E+00   4.185872E+00   3.798646E+00   3.451851E+00   3.153788E+00   2.899997E+00   2.673540E+00   2.492737E+00   2.357553E+00   2.272961E+00   2.236770E+00   2.258376E+00   2.327481E+00   2.455753E+00   2.632226E+00   2.854151E+00   3.111114E+00   3.385845E+00   3.642834E+00   3.848347E+00   3.999358E+00   4.091516E+00   4.130867E+00   4.141778E+00   4.115309E+00   4.073677E+00   4.031584E+00   3.994488E+00   3.959399E+00   3.949007E+00   3.954526E+00   4.000037E+00   4.075497E+00   4.202432E+00   4.371730E+00   4.536681E+00   4.675195E+00   4.758763E+00   4.767897E+00   4.727787E+00   4.655643E+00   4.566627E+00   4.446368E+00   4.311171E+00   4.158961E+00
   4.043761E+00   4.083887E+00   4.071024E+00   4.036764E+00   3.960303E+00   3.884414E+00   3.812904E+00   3.758761E+00   3.692303E+00   3.603428E+00   3.479454E+00   3.349633E+00   3.220889E+00   3.113739E+00   3.027360E+00   2.968255E+00   2.913456E+00   2.900824E+00   2.924305E+00   2.989097E+00   3.088273E+00   3.214602E+00   3.342310E+00   3.478980E+00   3.627633E+00   3.797819E+00   3.966149E+00   4.148074E+00   4.342088E+00   4.551914E+00   4.756281E+00   4.954456E+00   5.104772E+00   5.217015E+00   5.243189E+00   5.179435E+00   5.008427E+00   4.735731E+00   4.380101E+00   4.003466E+00   3.651541E+00   3.363674E+00   3.126763E+00   2.945254E+00   2.819901E+00   2.736199E+00   2.707496E+00   2.717294E+00   2.787786E+00   2.909518E+00   3.080912E+00   3.272770E+00   3.458499E+00   3.628646E+00   3.748152E+00   3.826246E+00   3.874323E+00   3.940809E+00   4.035694E+00   4.175032E+00   4.365860E+00   4.565010E+00   4.747828E+00   4.854701E+00   4.846162E+00   4.722583E+00   4.528846E+00   4.300043E+00   4.055716E+00   3.804523E+00   3.576869E+00   3.377737E+00   3.200941E+00   3.064872E+00   2.967285E+00   2.905049E+00   2.885386E+00   2.879950E+00   2.895569E+00   2.904243E+00   2.899371E+00   2.858572E+00   2.798075E+00   2.723672E+00   2.642493E+00   2.554727E+00   2.475331E+00   2.430230E+00   2.430959E+00   2.496491E+00   2.613085E+00   2.781441E+00   2.975281E+00   3.192685E+00   3.411491E+00   3.607353E+00   3.762716E+00   3.837389E+00   3.842403E+00   3.784324E+00   3.672396E+00   3.546666E+00   3.415829E+00   3.298685E+00   3.212478E+00   3.164657E+00   3.148915E+00   3.143716E+00   3.147984E+00   3.159864E+00   3.178814E+00   3.207434E+00   3.260055E+00   3.310769E+00   3.340222E+00   3.345585E+00   3.324245E+00   3.287546E+00   3.257995E+00   3.244687E+00   3.259497E+00   3.297767E+00   3.354233E+00   3.410016E+00   3.442321E+00   3.444343E+00   3.415356E+00   3.382496E+00   3.375383E+00   3.390635E+00   3.445366E+00   3.503346E+00   3.536202E+00   3.519738E+00   3.462605E+00   3.370201E+00   3.284983E+00   3.228387E+00   3.243460E+00   3.322930E+00   3.491430E+00   3.742107E+00   4.034782E+00   4.339213E+00   4.636896E+00   4.932233E+00   5.240368E+00   5.557599E+00   5.847399E+00   6.060308E+00   6.143950E+00   6.063650E+00   5.840803E+00   5.502394E+00   5.103159E+00   4.675928E+00   4.270167E+00   3.886513E+00   3.560572E+00   3.278494E+00   3.028785E+00   2.794112E+00   2.601361E+00   2.452814E+00   2.352484E+00   2.309461E+00   2.314421E+00   2.382811E+00   2.499954E+00   2.669183E+00   2.872054E+00   3.122751E+00   3.385009E+00   3.627190E+00   3.814530E+00   3.943406E+00   4.011208E+00   4.034896E+00   4.030962E+00   3.989319E+00   3.959952E+00   3.940152E+00   3.914081E+00   3.892484E+00   3.874982E+00   3.877675E+00   3.913296E+00   3.978328E+00   4.087839E+00   4.228748E+00   4.381346E+00   4.500535E+00   4.581187E+00   4.593838E+00   4.575541E+00   4.527308E+00   4.442526E+00   4.360607E+00   4.254961E+00   4.139174E+00
   4.117997E+00   4.210445E+00   4.262200E+00   4.249393E+00   4.207767E+00   4.124338E+00   4.064328E+00   3.996529E+00   3.908418E+00   3.778838E+00   3.618062E+00   3.458380E+00   3.314852E+00   3.196295E+00   3.115379E+00   3.067935E+00   3.035991E+00   3.024312E+00   3.037494E+00   3.091117E+00   3.170666E+00   3.276448E+00   3.403860E+00   3.532325E+00   3.672792E+00   3.816949E+00   3.980534E+00   4.160024E+00   4.383807E+00   4.596588E+00   4.813845E+00   5.005759E+00   5.181180E+00   5.288842E+00   5.335292E+00   5.284504E+00   5.155453E+00   4.924394E+00   4.611053E+00   4.238992E+00   3.877363E+00   3.554278E+00   3.295278E+00   3.101444E+00   2.960199E+00   2.877709E+00   2.847468E+00   2.877268E+00   2.958323E+00   3.078899E+00   3.238812E+00   3.414252E+00   3.595874E+00   3.736700E+00   3.842883E+00   3.909952E+00   3.973186E+00   4.057691E+00   4.186958E+00   4.375547E+00   4.610741E+00   4.857800E+00   5.049888E+00   5.163102E+00   5.160286E+00   5.042491E+00   4.841276E+00   4.608798E+00   4.364600E+00   4.126398E+00   3.915679E+00   3.719131E+00   3.534006E+00   3.381172E+00   3.237556E+00   3.137339E+00   3.067336E+00   3.019382E+00   2.985880E+00   2.955071E+00   2.920335E+00   2.866827E+00   2.804258E+00   2.741879E+00   2.669154E+00   2.616475E+00   2.575790E+00   2.565619E+00   2.600953E+00   2.681469E+00   2.828476E+00   3.010220E+00   3.222513E+00   3.449438E+00   3.652942E+00   3.812370E+00   3.942545E+00   4.019981E+00   4.008696E+00   3.952034E+00   3.841415E+00   3.726218E+00   3.610030E+00   3.506340E+00   3.425802E+00   3.373375E+00   3.342844E+00   3.343957E+00   3.354402E+00   3.379936E+00   3.413402E+00   3.449456E+00   3.492264E+00   3.513011E+00   3.511058E+00   3.485919E+00   3.432628E+00   3.358194E+00   3.270104E+00   3.189735E+00   3.132554E+00   3.100199E+00   3.091275E+00   3.086295E+00   3.077472E+00   3.064537E+00   3.046382E+00   3.046744E+00   3.070084E+00   3.129322E+00   3.220116E+00   3.330119E+00   3.413646E+00   3.461110E+00   3.454374E+00   3.416132E+00   3.354893E+00   3.319940E+00   3.334056E+00   3.425240E+00   3.583604E+00   3.818266E+00   4.091151E+00   4.376279E+00   4.642762E+00   4.915082E+00   5.189105E+00   5.481814E+00   5.739292E+00   5.936991E+00   6.021107E+00   5.969518E+00   5.783581E+00   5.506988E+00   5.158707E+00   4.774300E+00   4.399076E+00   4.037506E+00   3.708212E+00   3.425650E+00   3.169675E+00   2.936668E+00   2.729962E+00   2.577117E+00   2.473149E+00   2.423335E+00   2.431077E+00   2.485708E+00   2.602104E+00   2.752223E+00   2.948996E+00   3.172966E+00   3.409044E+00   3.626727E+00   3.803796E+00   3.900774E+00   3.954906E+00   3.968143E+00   3.952775E+00   3.917142E+00   3.892434E+00   3.872142E+00   3.861672E+00   3.835656E+00   3.817500E+00   3.801998E+00   3.815424E+00   3.856980E+00   3.933619E+00   4.037475E+00   4.144947E+00   4.243686E+00   4.295193E+00   4.320550E+00   4.320635E+00   4.298083E+00   4.258202E+00   4.217102E+00   4.165336E+00   4.084776E+00