# LPF package for  MODFLOW-2005, generated by Flopy.
         0    -1E+30         0  
         0
         0
   1.000000E+00
         0
         0
INTERNAL               1 (200E15.6) -1 #hk layer 1                    
   3.962785E+00   3.935253E+00   3.904597E+00   3.862577E+00   3.833824E+00   3.813391E+00   3.802027E+00   3.789273E+00   3.787644E+00   3.761367E+00   3.731917E+00   3.688876E+00   3.641630E+00   3.585207E+00   3.527601E+00   3.488690E+00   3.471180E+00   3.475499E+00   3.487763E+00   3.514871E+00   3.555390E+00   3.610125E+00   3.676163E+00   3.769688E+00   3.856394E+00   3.942603E+00   4.024002E+00   4.102607E+00   4.173385E+00   4.228912E+00   4.263525E+00   4.278222E+00   4.262550E+00   4.208831E+00   4.144203E+00   4.061118E+00   3.983726E+00   3.902556E+00   3.837377E+00   3.780458E+00   3.734403E+00   3.705051E+00   3.677677E+00   3.641474E+00   3.612152E+00   3.596218E+00   3.597853E+00   3.596416E+00   3.597030E+00   3.587658E+00   3.565873E+00   3.538474E+00   3.502618E+00   3.460942E+00   3.425208E+00   3.380463E+00   3.348149E+00   3.330716E+00   3.342684E+00   3.384873E+00   3.437987E+00   3.508758E+00   3.589103E+00   3.667663E+00   3.725030E+00   3.774304E+00   3.803892E+00   3.824130E+00   3.826079E+00   3.806132E+00   3.768696E+00   3.724298E+00   3.683913E+00   3.658847E+00   3.654739E+00   3.647176E+00   3.655446E+00   3.651760E+00   3.644584E+00   3.635181E+00   3.635799E+00   3.623792E+00   3.611455E+00   3.599504E+00   3.583103E+00   3.572242E+00   3.570007E+00   3.582314E+00   3.598268E+00   3.649055E+00   3.714919E+00   3.790920E+00   3.863292E+00   3.918328E+00   3.938055E+00   3.934274E+00   3.911772E+00   3.868133E+00   3.820153E+00   3.755186E+00   3.688744E+00   3.614295E+00   3.538744E+00   3.483439E+00   3.436703E+00   3.398502E+00   3.375321E+00   3.354218E+00   3.352271E+00   3.340750E+00   3.328483E+00   3.308795E+00   3.299214E+00   3.304899E+00   3.313750E+00   3.343911E+00   3.403324E+00   3.481834E+00   3.577352E+00   3.681828E+00   3.773067E+00   3.873317E+00   3.962944E+00   4.047258E+00   4.126966E+00   4.192462E+00   4.268057E+00   4.325014E+00   4.356631E+00   4.372909E+00   4.360086E+00   4.335435E+00   4.308223E+00   4.267432E+00   4.212804E+00   4.168873E+00   4.110854E+00   4.072114E+00   4.050212E+00   4.051339E+00   4.074032E+00   4.106595E+00   4.158583E+00   4.213112E+00   4.279331E+00   4.348948E+00   4.431267E+00   4.525101E+00   4.590676E+00   4.616949E+00   4.595905E+00   4.545445E+00   4.458011E+00   4.371100E+00   4.269433E+00   4.164192E+00   4.064213E+00   3.962294E+00   3.866686E+00   3.760894E+00   3.673699E+00   3.573192E+00   3.493935E+00   3.440110E+00   3.401968E+00   3.385189E+00   3.389237E+00   3.415320E+00   3.461529E+00   3.545057E+00   3.647931E+00   3.757045E+00   3.870815E+00   3.969831E+00   4.043706E+00   4.094957E+00   4.129539E+00   4.160929E+00   4.187412E+00   4.202439E+00   4.222236E+00   4.238309E+00   4.251684E+00   4.250375E+00   4.238886E+00   4.202184E+00   4.153100E+00   4.089958E+00   4.032104E+00   3.993688E+00   3.975637E+00   3.977481E+00   3.985401E+00   4.000426E+00   4.005253E+00   4.010291E+00   4.009962E+00   3.991191E+00   3.983179E+00   3.979279E+00
   3.931077E+00   3.887704E+00   3.829750E+00   3.762546E+00   3.694468E+00   3.655419E+00   3.623402E+00   3.599605E+00   3.585318E+00   3.568882E+00   3.517991E+00   3.458734E+00   3.366055E+00   3.277423E+00   3.188834E+00   3.124143E+00   3.087925E+00   3.089279E+00   3.108707E+00   3.145779E+00   3.206773E+00   3.294651E+00   3.408718E+00   3.546029E+00   3.701188E+00   3.869331E+00   4.044170E+00   4.212914E+00   4.363926E+00   4.476900E+00   4.542866E+00   4.578665E+00   4.539617E+00   4.450175E+00   4.314047E+00   4.167143E+00   4.017089E+00   3.866610E+00   3.721370E+00   3.617333E+00   3.532151E+00   3.477625E+00   3.426651E+00   3.378162E+00   3.326919E+00   3.299393E+00   3.291396E+00   3.285518E+00   3.282842E+00   3.269466E+00   3.241945E+00   3.198107E+00   3.151942E+00   3.091620E+00   3.019226E+00   2.953044E+00   2.904778E+00   2.881429E+00   2.896971E+00   2.955995E+00   3.048470E+00   3.177658E+00   3.316700E+00   3.439654E+00   3.541183E+00   3.620515E+00   3.660085E+00   3.671160E+00   3.654769E+00   3.607984E+00   3.536980E+00   3.463182E+00   3.394928E+00   3.346663E+00   3.318277E+00   3.305749E+00   3.306779E+00   3.317287E+00   3.330792E+00   3.344727E+00   3.346267E+00   3.339780E+00   3.320410E+00   3.291678E+00   3.255664E+00   3.224216E+00   3.214365E+00   3.223326E+00   3.256997E+00   3.326787E+00   3.449601E+00   3.571632E+00   3.708098E+00   3.808180E+00   3.860894E+00   3.865911E+00   3.817491E+00   3.748159E+00   3.658889E+00   3.553114E+00   3.436086E+00   3.309238E+00   3.182705E+00   3.081938E+00   3.002621E+00   2.939419E+00   2.898879E+00   2.875438E+00   2.857712E+00   2.842486E+00   2.822988E+00   2.810383E+00   2.814387E+00   2.823894E+00   2.855649E+00   2.913146E+00   2.996869E+00   3.108286E+00   3.251640E+00   3.408116E+00   3.570872E+00   3.748428E+00   3.919852E+00   4.086804E+00   4.236164E+00   4.381615E+00   4.511482E+00   4.607903E+00   4.648486E+00   4.658943E+00   4.638970E+00   4.593459E+00   4.518907E+00   4.415413E+00   4.309282E+00   4.212194E+00   4.139754E+00   4.086328E+00   4.073375E+00   4.088203E+00   4.138551E+00   4.222385E+00   4.297054E+00   4.406680E+00   4.525697E+00   4.680915E+00   4.854661E+00   5.038047E+00   5.182843E+00   5.230693E+00   5.195754E+00   5.073003E+00   4.905567E+00   4.710799E+00   4.497756E+00   4.285007E+00   4.077544E+00   3.883846E+00   3.689746E+00   3.513378E+00   3.339325E+00   3.195127E+00   3.067235E+00   2.986337E+00   2.935888E+00   2.911051E+00   2.919302E+00   2.971871E+00   3.068578E+00   3.208292E+00   3.374330E+00   3.558595E+00   3.746947E+00   3.910099E+00   4.046043E+00   4.142644E+00   4.213591E+00   4.270934E+00   4.313240E+00   4.348044E+00   4.379267E+00   4.414594E+00   4.424890E+00   4.420091E+00   4.381949E+00   4.328647E+00   4.247763E+00   4.153073E+00   4.068496E+00   4.005061E+00   4.004181E+00   4.019079E+00   4.045088E+00   4.059802E+00   4.058187E+00   4.054935E+00   4.036960E+00   4.011808E+00   3.986729E+00   3.982322E+00
   3.911416E+00   3.831452E+00   3.749031E+00   3.665214E+00   3.598267E+00   3.527316E+00   3.481836E+00   3.447907E+00   3.426062E+00   3.389510E+00   3.341938E+00   3.261214E+00   3.174250E+00   3.070194E+00   2.974266E+00   2.896944E+00   2.852966E+00   2.845664E+00   2.865909E+00   2.912192E+00   2.976182E+00   3.078876E+00   3.215474E+00   3.387274E+00   3.576746E+00   3.793128E+00   4.037794E+00   4.276474E+00   4.495388E+00   4.657487E+00   4.768394E+00   4.801570E+00   4.762998E+00   4.652888E+00   4.500792E+00   4.293184E+00   4.082536E+00   3.863364E+00   3.680146E+00   3.528723E+00   3.416050E+00   3.325297E+00   3.259078E+00   3.194427E+00   3.126830E+00   3.063575E+00   3.038947E+00   3.013899E+00   3.011943E+00   3.010907E+00   3.004363E+00   2.979185E+00   2.953093E+00   2.897791E+00   2.834718E+00   2.772667E+00   2.717890E+00   2.691953E+00   2.709844E+00   2.779289E+00   2.893831E+00   3.038746E+00   3.197111E+00   3.347989E+00   3.465462E+00   3.536924E+00   3.565846E+00   3.555139E+00   3.505713E+00   3.429954E+00   3.323966E+00   3.222808E+00   3.129864E+00   3.063085E+00   3.021104E+00   3.000816E+00   3.008719E+00   3.033524E+00   3.074675E+00   3.111217E+00   3.131209E+00   3.131633E+00   3.116827E+00   3.074357E+00   3.034519E+00   2.993492E+00   2.965133E+00   2.957890E+00   2.984674E+00   3.066877E+00   3.196441E+00   3.362242E+00   3.523914E+00   3.667911E+00   3.738824E+00   3.748463E+00   3.707745E+00   3.629706E+00   3.533701E+00   3.403349E+00   3.255738E+00   3.101757E+00   2.952984E+00   2.817172E+00   2.714300E+00   2.633703E+00   2.576584E+00   2.543535E+00   2.525755E+00   2.512152E+00   2.502237E+00   2.501029E+00   2.520356E+00   2.552279E+00   2.595153E+00   2.671761E+00   2.768926E+00   2.892283E+00   3.055804E+00   3.236712E+00   3.429573E+00   3.652566E+00   3.877738E+00   4.097508E+00   4.299104E+00   4.471961E+00   4.632837E+00   4.738220E+00   4.800166E+00   4.799166E+00   4.754523E+00   4.666317E+00   4.541183E+00   4.402678E+00   4.262012E+00   4.144520E+00   4.046539E+00   4.001589E+00   3.997183E+00   4.042336E+00   4.127496E+00   4.226411E+00   4.358895E+00   4.514562E+00   4.710454E+00   4.934340E+00   5.204686E+00   5.455161E+00   5.643328E+00   5.717433E+00   5.675494E+00   5.513030E+00   5.266129E+00   4.981776E+00   4.677898E+00   4.378155E+00   4.084965E+00   3.801316E+00   3.529264E+00   3.281473E+00   3.065727E+00   2.875541E+00   2.743272E+00   2.652189E+00   2.600383E+00   2.586853E+00   2.616939E+00   2.692951E+00   2.816305E+00   2.984114E+00   3.191927E+00   3.408604E+00   3.632215E+00   3.836342E+00   4.016529E+00   4.146279E+00   4.243831E+00   4.309550E+00   4.361506E+00   4.400001E+00   4.422934E+00   4.430373E+00   4.437261E+00   4.415487E+00   4.374026E+00   4.306388E+00   4.231703E+00   4.167442E+00   4.107736E+00   4.083410E+00   4.095798E+00   4.140775E+00   4.191575E+00   4.206550E+00   4.196497E+00   4.158290E+00   4.116697E+00   4.076118E+00   4.039310E+00   4.009646E+00
   3.896338E+00   3.807969E+00   3.706516E+00   3.616936E+00   3.543827E+00   3.483065E+00   3.426032E+00   3.385885E+00   3.348076E+00   3.304483E+00   3.237183E+00   3.161597E+00   3.059959E+00   2.958196E+00   2.860638E+00   2.787784E+00   2.737653E+00   2.721755E+00   2.738532E+00   2.785220E+00   2.846657E+00   2.943871E+00   3.080878E+00   3.263490E+00   3.476046E+00   3.717917E+00   3.983382E+00   4.264753E+00   4.516657E+00   4.716571E+00   4.850685E+00   4.916104E+00   4.878163E+00   4.797281E+00   4.627614E+00   4.408036E+00   4.159763E+00   3.904604E+00   3.671386E+00   3.492242E+00   3.347669E+00   3.228876E+00   3.124492E+00   3.028180E+00   2.943584E+00   2.872878E+00   2.826964E+00   2.791249E+00   2.786438E+00   2.799956E+00   2.824816E+00   2.847822E+00   2.864116E+00   2.863376E+00   2.830140E+00   2.784813E+00   2.741630E+00   2.726143E+00   2.748940E+00   2.821658E+00   2.941328E+00   3.095725E+00   3.256376E+00   3.401642E+00   3.504750E+00   3.551382E+00   3.541220E+00   3.483341E+00   3.397108E+00   3.283813E+00   3.158046E+00   3.024974E+00   2.914547E+00   2.825004E+00   2.781329E+00   2.772138E+00   2.795338E+00   2.835836E+00   2.895660E+00   2.947552E+00   2.992288E+00   3.008339E+00   2.996104E+00   2.955388E+00   2.894419E+00   2.837191E+00   2.786924E+00   2.764486E+00   2.784047E+00   2.851966E+00   2.984896E+00   3.145485E+00   3.331549E+00   3.491982E+00   3.600831E+00   3.640397E+00   3.616418E+00   3.548534E+00   3.453561E+00   3.323479E+00   3.168932E+00   2.995583E+00   2.832634E+00   2.694636E+00   2.573863E+00   2.487790E+00   2.433911E+00   2.393499E+00   2.380900E+00   2.366879E+00   2.370488E+00   2.385046E+00   2.415767E+00   2.466013E+00   2.529820E+00   2.616096E+00   2.714257E+00   2.835376E+00   2.981694E+00   3.154727E+00   3.349911E+00   3.570972E+00   3.812984E+00   4.058712E+00   4.280216E+00   4.463691E+00   4.608294E+00   4.703495E+00   4.741003E+00   4.728399E+00   4.661654E+00   4.551081E+00   4.399560E+00   4.235634E+00   4.081892E+00   3.944155E+00   3.855957E+00   3.806771E+00   3.815705E+00   3.886988E+00   4.004430E+00   4.149215E+00   4.328374E+00   4.552770E+00   4.810615E+00   5.113823E+00   5.421712E+00   5.736948E+00   5.978660E+00   6.084887E+00   6.044166E+00   5.856217E+00   5.551664E+00   5.189078E+00   4.810853E+00   4.452499E+00   4.093166E+00   3.749055E+00   3.425469E+00   3.138855E+00   2.889653E+00   2.700891E+00   2.550993E+00   2.445431E+00   2.391824E+00   2.380586E+00   2.413112E+00   2.497925E+00   2.634455E+00   2.831645E+00   3.050445E+00   3.292449E+00   3.532458E+00   3.767049E+00   3.958582E+00   4.113583E+00   4.209724E+00   4.281875E+00   4.319364E+00   4.339434E+00   4.337344E+00   4.334798E+00   4.302847E+00   4.280713E+00   4.231273E+00   4.189288E+00   4.155098E+00   4.129638E+00   4.138730E+00   4.185255E+00   4.258945E+00   4.341087E+00   4.394219E+00   4.415854E+00   4.386311E+00   4.323554E+00   4.237236E+00   4.156214E+00   4.092099E+00   4.036601E+00
   3.901696E+00   3.809711E+00   3.712888E+00   3.630019E+00   3.558287E+00   3.492704E+00   3.437767E+00   3.386276E+00   3.349708E+00   3.288373E+00   3.216009E+00   3.121204E+00   3.023086E+00   2.922317E+00   2.830978E+00   2.752832E+00   2.701432E+00   2.678472E+00   2.699525E+00   2.742288E+00   2.817354E+00   2.926213E+00   3.055912E+00   3.229914E+00   3.438013E+00   3.675146E+00   3.932335E+00   4.187465E+00   4.435226E+00   4.641869E+00   4.792333E+00   4.872511E+00   4.908923E+00   4.864817E+00   4.746889E+00   4.554252E+00   4.324066E+00   4.030348E+00   3.759165E+00   3.508745E+00   3.314075E+00   3.156622E+00   3.022672E+00   2.903740E+00   2.799695E+00   2.721426E+00   2.671234E+00   2.639130E+00   2.636755E+00   2.670411E+00   2.738810E+00   2.823051E+00   2.910178E+00   2.960708E+00   2.976298E+00   2.960455E+00   2.945654E+00   2.945031E+00   2.983110E+00   3.057776E+00   3.184608E+00   3.341584E+00   3.498918E+00   3.627333E+00   3.703205E+00   3.705425E+00   3.643443E+00   3.535009E+00   3.394149E+00   3.237690E+00   3.074044E+00   2.923993E+00   2.788213E+00   2.691061E+00   2.641495E+00   2.636010E+00   2.665066E+00   2.729170E+00   2.799910E+00   2.866163E+00   2.918183E+00   2.931406E+00   2.906282E+00   2.851847E+00   2.781941E+00   2.705168E+00   2.636858E+00   2.599414E+00   2.599317E+00   2.653923E+00   2.769816E+00   2.935775E+00   3.119232E+00   3.298673E+00   3.442121E+00   3.518143E+00   3.534065E+00   3.508417E+00   3.444474E+00   3.340472E+00   3.192410E+00   3.012732E+00   2.849133E+00   2.706420E+00   2.595975E+00   2.518609E+00   2.464176E+00   2.428205E+00   2.404540E+00   2.406764E+00   2.422117E+00   2.448467E+00   2.486589E+00   2.553172E+00   2.621698E+00   2.698057E+00   2.789606E+00   2.883010E+00   3.000319E+00   3.140874E+00   3.319639E+00   3.523772E+00   3.753264E+00   3.991309E+00   4.187501E+00   4.355097E+00   4.460821E+00   4.499118E+00   4.504980E+00   4.484356E+00   4.418371E+00   4.309118E+00   4.154035E+00   4.001118E+00   3.839896E+00   3.701269E+00   3.600477E+00   3.565135E+00   3.584229E+00   3.673812E+00   3.810717E+00   4.003243E+00   4.232055E+00   4.504705E+00   4.816106E+00   5.151113E+00   5.489009E+00   5.836730E+00   6.113039E+00   6.268721E+00   6.251369E+00   6.082153E+00   5.759497E+00   5.355847E+00   4.928386E+00   4.505206E+00   4.099520E+00   3.720833E+00   3.369053E+00   3.066744E+00   2.811479E+00   2.601417E+00   2.445823E+00   2.332665E+00   2.270992E+00   2.255227E+00   2.288614E+00   2.376618E+00   2.523782E+00   2.715867E+00   2.945370E+00   3.191379E+00   3.443798E+00   3.689489E+00   3.913805E+00   4.080292E+00   4.193004E+00   4.246758E+00   4.279417E+00   4.268290E+00   4.247685E+00   4.206397E+00   4.172373E+00   4.134934E+00   4.107785E+00   4.081089E+00   4.088388E+00   4.122706E+00   4.193620E+00   4.301141E+00   4.423913E+00   4.541470E+00   4.623351E+00   4.634219E+00   4.598246E+00   4.522862E+00   4.414787E+00   4.300380E+00   4.189258E+00   4.089383E+00
   3.927617E+00   3.860323E+00   3.788203E+00   3.722673E+00   3.643105E+00   3.574384E+00   3.506434E+00   3.459368E+00   3.411802E+00   3.346891E+00   3.262216E+00   3.163519E+00   3.052310E+00   2.955671E+00   2.864376E+00   2.790931E+00   2.732904E+00   2.715836E+00   2.734306E+00   2.797549E+00   2.881257E+00   2.997249E+00   3.127483E+00   3.292552E+00   3.479939E+00   3.680805E+00   3.901118E+00   4.137835E+00   4.358244E+00   4.559149E+00   4.716155E+00   4.837239E+00   4.929035E+00   4.954722E+00   4.886791E+00   4.749395E+00   4.529225E+00   4.227138E+00   3.908371E+00   3.604307E+00   3.351082E+00   3.144664E+00   2.970869E+00   2.837109E+00   2.728335E+00   2.642830E+00   2.593868E+00   2.572653E+00   2.599867E+00   2.667133E+00   2.776284E+00   2.913573E+00   3.051755E+00   3.166216E+00   3.228270E+00   3.264129E+00   3.281496E+00   3.301455E+00   3.351295E+00   3.446007E+00   3.576930E+00   3.732709E+00   3.894771E+00   4.003061E+00   4.043035E+00   3.995806E+00   3.873095E+00   3.711296E+00   3.518111E+00   3.313454E+00   3.125397E+00   2.946376E+00   2.803240E+00   2.694332E+00   2.638764E+00   2.633997E+00   2.659364E+00   2.716580E+00   2.789782E+00   2.847466E+00   2.889693E+00   2.890469E+00   2.852940E+00   2.790062E+00   2.706846E+00   2.613966E+00   2.526816E+00   2.465551E+00   2.452497E+00   2.498012E+00   2.601860E+00   2.760928E+00   2.955926E+00   3.156318E+00   3.335150E+00   3.460691E+00   3.530477E+00   3.550390E+00   3.522096E+00   3.436528E+00   3.299288E+00   3.143634E+00   2.984173E+00   2.847439E+00   2.743496E+00   2.675166E+00   2.635877E+00   2.605944E+00   2.594631E+00   2.592126E+00   2.609249E+00   2.639314E+00   2.691263E+00   2.750701E+00   2.812902E+00   2.870553E+00   2.921200E+00   2.980811E+00   3.060359E+00   3.169153E+00   3.313156E+00   3.482626E+00   3.679012E+00   3.871463E+00   4.035902E+00   4.142436E+00   4.184768E+00   4.175566E+00   4.162705E+00   4.129158E+00   4.091270E+00   4.017065E+00   3.916676E+00   3.790575E+00   3.647413E+00   3.508394E+00   3.404085E+00   3.357383E+00   3.388001E+00   3.478873E+00   3.631328E+00   3.853112E+00   4.106819E+00   4.399859E+00   4.726147E+00   5.080734E+00   5.439446E+00   5.796183E+00   6.091784E+00   6.274632E+00   6.310385E+00   6.158309E+00   5.832621E+00   5.430284E+00   4.999079E+00   4.559300E+00   4.133787E+00   3.732441E+00   3.385909E+00   3.081232E+00   2.821710E+00   2.606867E+00   2.437553E+00   2.311660E+00   2.234576E+00   2.206749E+00   2.236041E+00   2.315404E+00   2.456372E+00   2.644547E+00   2.873912E+00   3.128495E+00   3.389661E+00   3.644859E+00   3.861522E+00   4.030230E+00   4.142886E+00   4.209192E+00   4.220131E+00   4.215831E+00   4.167714E+00   4.130908E+00   4.083534E+00   4.053138E+00   4.027109E+00   4.034051E+00   4.065541E+00   4.130265E+00   4.237662E+00   4.388577E+00   4.553191E+00   4.687943E+00   4.764664E+00   4.776665E+00   4.729653E+00   4.654966E+00   4.559351E+00   4.432710E+00   4.291626E+00   4.145138E+00
   3.979055E+00   3.955740E+00   3.915604E+00   3.845545E+00   3.786550E+00   3.701512E+00   3.639588E+00   3.584394E+00   3.537690E+00   3.468962E+00   3.373753E+00   3.259879E+00   3.136244E+00   3.031834E+00   2.942267E+00   2.870937E+00   2.818971E+00   2.790224E+00   2.819509E+00   2.882982E+00   2.983929E+00   3.109937E+00   3.236587E+00   3.391108E+00   3.556473E+00   3.739756E+00   3.941121E+00   4.130469E+00   4.330819E+00   4.528787E+00   4.722058E+00   4.876148E+00   4.993898E+00   5.068096E+00   5.074639E+00   4.980409E+00   4.779100E+00   4.475666E+00   4.123998E+00   3.773692E+00   3.476292E+00   3.219362E+00   3.016302E+00   2.855184E+00   2.731630E+00   2.650757E+00   2.602273E+00   2.606473E+00   2.658973E+00   2.753775E+00   2.901651E+00   3.083395E+00   3.264526E+00   3.425242E+00   3.535599E+00   3.600686E+00   3.640810E+00   3.670841E+00   3.742181E+00   3.855364E+00   4.003613E+00   4.174189E+00   4.336405E+00   4.435095E+00   4.438181E+00   4.351770E+00   4.189148E+00   3.980225E+00   3.749832E+00   3.520570E+00   3.295841E+00   3.104648E+00   2.943927E+00   2.832778E+00   2.759960E+00   2.730394E+00   2.735385E+00   2.771915E+00   2.823941E+00   2.866845E+00   2.880406E+00   2.862761E+00   2.808475E+00   2.741799E+00   2.651205E+00   2.550717E+00   2.459962E+00   2.393864E+00   2.382097E+00   2.432303E+00   2.542616E+00   2.698968E+00   2.900458E+00   3.110237E+00   3.316088E+00   3.493972E+00   3.620508E+00   3.673767E+00   3.670224E+00   3.599154E+00   3.483482E+00   3.343539E+00   3.199862E+00   3.071614E+00   2.981665E+00   2.925752E+00   2.895549E+00   2.879230E+00   2.873795E+00   2.873079E+00   2.885313E+00   2.914321E+00   2.965287E+00   3.022466E+00   3.066256E+00   3.108322E+00   3.122024E+00   3.138813E+00   3.170289E+00   3.220740E+00   3.308076E+00   3.420430E+00   3.552764E+00   3.682413E+00   3.773744E+00   3.813434E+00   3.801741E+00   3.770610E+00   3.743244E+00   3.735946E+00   3.734732E+00   3.735295E+00   3.698371E+00   3.619360E+00   3.520386E+00   3.397343E+00   3.290875E+00   3.228693E+00   3.248700E+00   3.342463E+00   3.511648E+00   3.752518E+00   4.029200E+00   4.331492E+00   4.644477E+00   4.977375E+00   5.324605E+00   5.669374E+00   5.977484E+00   6.189590E+00   6.239543E+00   6.110331E+00   5.834851E+00   5.472945E+00   5.047682E+00   4.617821E+00   4.185750E+00   3.798544E+00   3.451756E+00   3.153697E+00   2.899912E+00   2.673464E+00   2.492677E+00   2.357516E+00   2.272949E+00   2.236789E+00   2.258437E+00   2.327601E+00   2.455949E+00   2.632513E+00   2.854540E+00   3.111613E+00   3.386453E+00   3.643525E+00   3.849093E+00   4.000135E+00   4.092294E+00   4.131628E+00   4.142509E+00   4.115993E+00   4.074309E+00   4.032171E+00   3.995047E+00   3.959938E+00   3.949544E+00   3.955073E+00   4.000617E+00   4.076119E+00   4.203107E+00   4.372452E+00   4.537445E+00   4.675981E+00   4.759544E+00   4.768644E+00   4.728476E+00   4.656251E+00   4.567135E+00   4.446754E+00   4.311427E+00   4.159083E+00
   4.043711E+00   4.083796E+00   4.070902E+00   4.036624E+00   3.960155E+00   3.884260E+00   3.812735E+00   3.758566E+00   3.692075E+00   3.603163E+00   3.479154E+00   3.349294E+00   3.220509E+00   3.113321E+00   3.026899E+00   2.967750E+00   2.912912E+00   2.900237E+00   2.923672E+00   2.988416E+00   3.087551E+00   3.213844E+00   3.341534E+00   3.478204E+00   3.626887E+00   3.797138E+00   3.965579E+00   4.147660E+00   4.341864E+00   4.551904E+00   4.756492E+00   4.954887E+00   5.105395E+00   5.217799E+00   5.244075E+00   5.180368E+00   5.009341E+00   4.736565E+00   4.380808E+00   4.004023E+00   3.651934E+00   3.363917E+00   3.126870E+00   2.945241E+00   2.819787E+00   2.736002E+00   2.707232E+00   2.716984E+00   2.787453E+00   2.909189E+00   3.080612E+00   3.272535E+00   3.458364E+00   3.628647E+00   3.748310E+00   3.826579E+00   3.874843E+00   3.941529E+00   4.036626E+00   4.176192E+00   4.367261E+00   4.566646E+00   4.749673E+00   4.856692E+00   4.848210E+00   4.724606E+00   4.530788E+00   4.301860E+00   4.057377E+00   3.805995E+00   3.578144E+00   3.378826E+00   3.201861E+00   3.065650E+00   2.967957E+00   2.905649E+00   2.885947E+00   2.880489E+00   2.896104E+00   2.904774E+00   2.899892E+00   2.859074E+00   2.798550E+00   2.724119E+00   2.642916E+00   2.555132E+00   2.475721E+00   2.430615E+00   2.431350E+00   2.496898E+00   2.613520E+00   2.781913E+00   2.975787E+00   3.193217E+00   3.412019E+00   3.607840E+00   3.763118E+00   3.837669E+00   3.842543E+00   3.784331E+00   3.672289E+00   3.546474E+00   3.415574E+00   3.298397E+00   3.212178E+00   3.164368E+00   3.148658E+00   3.143508E+00   3.147841E+00   3.159798E+00   3.178823E+00   3.207504E+00   3.260171E+00   3.310914E+00   3.340379E+00   3.345733E+00   3.324361E+00   3.287608E+00   3.257976E+00   3.244562E+00   3.259242E+00   3.297357E+00   3.353648E+00   3.409248E+00   3.441386E+00   3.443269E+00   3.414175E+00   3.381233E+00   3.374051E+00   3.389241E+00   3.443907E+00   3.501829E+00   3.534650E+00   3.518178E+00   3.461062E+00   3.368690E+00   3.283500E+00   3.226919E+00   3.241977E+00   3.321404E+00   3.489830E+00   3.740422E+00   4.033037E+00   4.337457E+00   4.635185E+00   4.930608E+00   5.238862E+00   5.556233E+00   5.846198E+00   6.059300E+00   6.143160E+00   6.063073E+00   5.840421E+00   5.502164E+00   5.103032E+00   4.675859E+00   4.270124E+00   3.886475E+00   3.560528E+00   3.278451E+00   3.028744E+00   2.794080E+00   2.601342E+00   2.452818E+00   2.352511E+00   2.309516E+00   2.314512E+00   2.382958E+00   2.500169E+00   2.669489E+00   2.872461E+00   3.123273E+00   3.385645E+00   3.627923E+00   3.815333E+00   3.944254E+00   4.012069E+00   4.035747E+00   4.031788E+00   3.990099E+00   3.960680E+00   3.940833E+00   3.914717E+00   3.893086E+00   3.875559E+00   3.878245E+00   3.913879E+00   3.978943E+00   4.088490E+00   4.229436E+00   4.382060E+00   4.501260E+00   4.581903E+00   4.594524E+00   4.576178E+00   4.527875E+00   4.443003E+00   4.360977E+00   4.255211E+00   4.139298E+00
   4.117935E+00   4.210330E+00   4.262046E+00   4.249216E+00   4.207582E+00   4.124149E+00   4.064124E+00   3.996294E+00   3.908143E+00   3.778522E+00   3.617705E+00   3.457981E+00   3.314410E+00   3.195812E+00   3.114850E+00   3.067359E+00   3.035372E+00   3.023659E+00   3.036805E+00   3.090391E+00   3.169903E+00   3.275652E+00   3.403043E+00   3.531507E+00   3.671995E+00   3.816214E+00   3.979904E+00   4.159545E+00   4.383518E+00   4.596515E+00   4.814003E+00   5.006137E+00   5.181758E+00   5.289579E+00   5.336143E+00   5.285398E+00   5.156333E+00   4.925192E+00   4.611726E+00   4.239502E+00   3.877703E+00   3.554458E+00   3.295319E+00   3.101366E+00   2.960024E+00   2.877451E+00   2.847147E+00   2.876902E+00   2.957937E+00   3.078518E+00   3.238464E+00   3.413974E+00   3.595705E+00   3.736675E+00   3.843032E+00   3.910291E+00   3.973728E+00   4.058453E+00   4.187957E+00   4.376809E+00   4.612272E+00   4.859595E+00   5.051899E+00   5.165260E+00   5.162500E+00   5.044678E+00   4.843362E+00   4.610739E+00   4.366364E+00   4.127964E+00   3.917036E+00   3.720289E+00   3.534981E+00   3.381995E+00   3.238260E+00   3.137964E+00   3.067907E+00   3.019918E+00   2.986395E+00   2.955569E+00   2.920813E+00   2.867283E+00   2.804690E+00   2.742290E+00   2.669551E+00   2.616868E+00   2.576188E+00   2.566030E+00   2.601383E+00   2.681926E+00   2.828972E+00   3.010755E+00   3.223082E+00   3.450020E+00   3.653495E+00   3.812855E+00   3.942926E+00   4.020231E+00   4.008810E+00   3.952023E+00   3.841304E+00   3.726030E+00   3.609790E+00   3.506068E+00   3.425521E+00   3.373103E+00   3.342603E+00   3.343767E+00   3.354281E+00   3.379889E+00   3.413422E+00   3.449531E+00   3.492378E+00   3.513146E+00   3.511197E+00   3.486045E+00   3.432718E+00   3.358222E+00   3.270045E+00   3.189567E+00   3.132258E+00   3.099761E+00   3.090679E+00   3.085543E+00   3.076585E+00   3.063541E+00   3.045303E+00   3.045599E+00   3.068883E+00   3.128067E+00   3.218810E+00   3.328765E+00   3.412267E+00   3.459725E+00   3.453002E+00   3.414783E+00   3.353571E+00   3.318634E+00   3.332742E+00   3.423890E+00   3.582204E+00   3.816815E+00   4.089666E+00   4.374808E+00   4.641350E+00   4.913769E+00   5.187922E+00   5.480776E+00   5.738417E+00   5.936298E+00   6.020606E+00   5.969201E+00   5.783421E+00   5.506946E+00   5.158735E+00   4.774360E+00   4.399141E+00   4.037556E+00   3.708242E+00   3.425667E+00   3.169690E+00   2.936692E+00   2.730000E+00   2.577170E+00   2.473221E+00   2.423432E+00   2.431209E+00   2.485890E+00   2.602353E+00   2.752552E+00   2.949427E+00   3.173509E+00   3.409708E+00   3.627498E+00   3.804655E+00   3.901689E+00   3.955852E+00   3.969097E+00   3.953717E+00   3.918051E+00   3.893301E+00   3.872963E+00   3.862438E+00   3.836365E+00   3.818162E+00   3.802626E+00   3.816033E+00   3.857585E+00   3.934231E+00   4.038092E+00   4.145567E+00   4.244301E+00   4.295790E+00   4.321114E+00   4.321156E+00   4.298547E+00   4.258594E+00   4.217412E+00   4.165550E+00   4.084885E+00