# LPF package for  MODFLOW-2005, generated by Flopy.
         0    -1E+30         0  
         0
         0
   1.000000E+00
         0
         0
INTERNAL               1 (200E15.6) -1 #hk layer 1                    
   3.962813E+00   3.935307E+00   3.904674E+00   3.862677E+00   3.833949E+00   3.813540E+00   3.802205E+00   3.789480E+00   3.787880E+00   3.761628E+00   3.732195E+00   3.689162E+00   3.641915E+00   3.585487E+00   3.527872E+00   3.488953E+00   3.471435E+00   3.475748E+00   3.488006E+00   3.515109E+00   3.555626E+00   3.610358E+00   3.676392E+00   3.769905E+00   3.856595E+00   3.942779E+00   4.024146E+00   4.102713E+00   4.173449E+00   4.228930E+00   4.263500E+00   4.278162E+00   4.262458E+00   4.208717E+00   4.144074E+00   4.060981E+00   3.983589E+00   3.902426E+00   3.837260E+00   3.780359E+00   3.734321E+00   3.704988E+00   3.677631E+00   3.641442E+00   3.612130E+00   3.596203E+00   3.597845E+00   3.596413E+00   3.597030E+00   3.587656E+00   3.565870E+00   3.538466E+00   3.502605E+00   3.460922E+00   3.425184E+00   3.380435E+00   3.348118E+00   3.330684E+00   3.342649E+00   3.384835E+00   3.437945E+00   3.508710E+00   3.589046E+00   3.667594E+00   3.724947E+00   3.774202E+00   3.803770E+00   3.823992E+00   3.825930E+00   3.805978E+00   3.768541E+00   3.724150E+00   3.683776E+00   3.658718E+00   3.654618E+00   3.647057E+00   3.655328E+00   3.651639E+00   3.644452E+00   3.635033E+00   3.635634E+00   3.623611E+00   3.611266E+00   3.599309E+00   3.582907E+00   3.572051E+00   3.569824E+00   3.582144E+00   3.598115E+00   3.648923E+00   3.714813E+00   3.790836E+00   3.863227E+00   3.918284E+00   3.938027E+00   3.934264E+00   3.911785E+00   3.868172E+00   3.820220E+00   3.755280E+00   3.688865E+00   3.614439E+00   3.538908E+00   3.483620E+00   3.436893E+00   3.398700E+00   3.375520E+00   3.354409E+00   3.352446E+00   3.340900E+00   3.328606E+00   3.308889E+00   3.299280E+00   3.304942E+00   3.313771E+00   3.343920E+00   3.403325E+00   3.481834E+00   3.577354E+00   3.681837E+00   3.773085E+00   3.873343E+00   3.962987E+00   4.047316E+00   4.127034E+00   4.192538E+00   4.268133E+00   4.325083E+00   4.356685E+00   4.372950E+00   4.360111E+00   4.335452E+00   4.308234E+00   4.267443E+00   4.212818E+00   4.168895E+00   4.110886E+00   4.072153E+00   4.050258E+00   4.051387E+00   4.074088E+00   4.106659E+00   4.158656E+00   4.213190E+00   4.279405E+00   4.349010E+00   4.431313E+00   4.525130E+00   4.590689E+00   4.616948E+00   4.595891E+00   4.545425E+00   4.457988E+00   4.371077E+00   4.269406E+00   4.164165E+00   4.064187E+00   3.962274E+00   3.866673E+00   3.760888E+00   3.673705E+00   3.573210E+00   3.493963E+00   3.440145E+00   3.402004E+00   3.385224E+00   3.389264E+00   3.415337E+00   3.461536E+00   3.545060E+00   3.647936E+00   3.757058E+00   3.870842E+00   3.969877E+00   4.043777E+00   4.095057E+00   4.129666E+00   4.161077E+00   4.187570E+00   4.202596E+00   4.222379E+00   4.238430E+00   4.251773E+00   4.250421E+00   4.238889E+00   4.202146E+00   4.153030E+00   4.089868E+00   4.032000E+00   3.993576E+00   3.975522E+00   3.977368E+00   3.985299E+00   4.000338E+00   4.005182E+00   4.010236E+00   4.009923E+00   3.991164E+00   3.983163E+00   3.979272E+00
   3.931127E+00   3.887802E+00   3.829893E+00   3.762733E+00   3.694699E+00   3.655700E+00   3.623736E+00   3.599995E+00   3.585763E+00   3.569374E+00   3.518510E+00   3.459265E+00   3.366579E+00   3.277932E+00   3.189328E+00   3.124618E+00   3.088386E+00   3.089730E+00   3.109153E+00   3.146217E+00   3.207210E+00   3.295087E+00   3.409150E+00   3.546449E+00   3.701580E+00   3.869682E+00   4.044466E+00   4.213139E+00   4.364070E+00   4.476954E+00   4.542827E+00   4.578553E+00   4.539441E+00   4.449958E+00   4.313807E+00   4.166891E+00   4.016840E+00   3.866378E+00   3.721162E+00   3.617155E+00   3.532002E+00   3.477504E+00   3.426556E+00   3.378090E+00   3.326866E+00   3.299352E+00   3.291364E+00   3.285493E+00   3.282820E+00   3.269442E+00   3.241916E+00   3.198071E+00   3.151896E+00   3.091568E+00   3.019166E+00   2.952979E+00   2.904708E+00   2.881355E+00   2.896890E+00   2.955907E+00   3.048374E+00   3.177548E+00   3.316571E+00   3.439502E+00   3.541003E+00   3.620306E+00   3.659845E+00   3.670891E+00   3.654480E+00   3.607687E+00   3.536688E+00   3.462903E+00   3.394669E+00   3.346422E+00   3.318047E+00   3.305526E+00   3.306556E+00   3.317056E+00   3.330542E+00   3.344447E+00   3.345956E+00   3.339443E+00   3.320060E+00   3.291322E+00   3.255312E+00   3.223878E+00   3.214046E+00   3.223032E+00   3.256734E+00   3.326563E+00   3.449416E+00   3.571487E+00   3.707987E+00   3.808102E+00   3.860850E+00   3.865903E+00   3.817523E+00   3.748239E+00   3.659020E+00   3.553292E+00   3.436311E+00   3.309502E+00   3.182999E+00   3.082254E+00   3.002956E+00   2.939759E+00   2.899215E+00   2.875756E+00   2.858002E+00   2.842737E+00   2.823192E+00   2.810539E+00   2.814500E+00   2.823967E+00   2.855694E+00   2.913171E+00   2.996883E+00   3.108296E+00   3.251654E+00   3.408142E+00   3.570912E+00   3.748490E+00   3.919940E+00   4.086918E+00   4.236303E+00   4.381771E+00   4.511646E+00   4.608054E+00   4.648614E+00   4.659045E+00   4.639049E+00   4.593521E+00   4.518962E+00   4.415468E+00   4.309345E+00   4.212273E+00   4.139850E+00   4.086438E+00   4.073501E+00   4.088342E+00   4.138709E+00   4.222560E+00   4.297238E+00   4.406869E+00   4.525885E+00   4.681087E+00   4.854805E+00   5.038159E+00   5.182922E+00   5.230733E+00   5.195765E+00   5.072989E+00   4.905539E+00   4.710757E+00   4.497702E+00   4.284948E+00   4.077491E+00   3.883802E+00   3.689721E+00   3.513371E+00   3.339340E+00   3.195163E+00   3.067289E+00   2.986398E+00   2.935952E+00   2.911110E+00   2.919348E+00   2.971902E+00   3.068596E+00   3.208306E+00   3.374350E+00   3.558632E+00   3.747013E+00   3.910205E+00   4.046198E+00   4.142854E+00   4.213854E+00   4.271239E+00   4.313565E+00   4.348365E+00   4.379562E+00   4.414841E+00   4.425065E+00   4.420185E+00   4.381960E+00   4.328581E+00   4.247635E+00   4.152906E+00   4.068299E+00   4.004849E+00   4.003965E+00   4.018867E+00   4.044895E+00   4.059634E+00   4.058050E+00   4.054830E+00   4.036880E+00   4.011752E+00   3.986691E+00   3.982303E+00
   3.911491E+00   3.831595E+00   3.749239E+00   3.665486E+00   3.598605E+00   3.527723E+00   3.482316E+00   3.448462E+00   3.426686E+00   3.390191E+00   3.342658E+00   3.261949E+00   3.174983E+00   3.070906E+00   2.974954E+00   2.897608E+00   2.853609E+00   2.846297E+00   2.866535E+00   2.912818E+00   2.976809E+00   3.079506E+00   3.216101E+00   3.387890E+00   3.577331E+00   3.793663E+00   4.038260E+00   4.276841E+00   4.495641E+00   4.657610E+00   4.768392E+00   4.801455E+00   4.762792E+00   4.652619E+00   4.500490E+00   4.292871E+00   4.082232E+00   3.863079E+00   3.679888E+00   3.528496E+00   3.415859E+00   3.325139E+00   3.258948E+00   3.194322E+00   3.126742E+00   3.063497E+00   3.038875E+00   3.013831E+00   3.011879E+00   3.010840E+00   3.004291E+00   2.979104E+00   2.953001E+00   2.897691E+00   2.834607E+00   2.772548E+00   2.717762E+00   2.691814E+00   2.709690E+00   2.779119E+00   2.893642E+00   3.038536E+00   3.196874E+00   3.347718E+00   3.465155E+00   3.536579E+00   3.565466E+00   3.554730E+00   3.505287E+00   3.429521E+00   3.323544E+00   3.222408E+00   3.129489E+00   3.062733E+00   3.020772E+00   3.000494E+00   3.008396E+00   3.033189E+00   3.074311E+00   3.110815E+00   3.130763E+00   3.131153E+00   3.116329E+00   3.073860E+00   3.034034E+00   2.993035E+00   2.964712E+00   2.957510E+00   2.984340E+00   3.066589E+00   3.196202E+00   3.362050E+00   3.523768E+00   3.667811E+00   3.738772E+00   3.748466E+00   3.707806E+00   3.629831E+00   3.533893E+00   3.403610E+00   3.256061E+00   3.102128E+00   2.953390E+00   2.817603E+00   2.714742E+00   2.634148E+00   2.577015E+00   2.543941E+00   2.526124E+00   2.512473E+00   2.502501E+00   2.501238E+00   2.520515E+00   2.552392E+00   2.595226E+00   2.671809E+00   2.768961E+00   2.892314E+00   3.055843E+00   3.236769E+00   3.429652E+00   3.652677E+00   3.877885E+00   4.097693E+00   4.299324E+00   4.472207E+00   4.633101E+00   4.738478E+00   4.800405E+00   4.799377E+00   4.754708E+00   4.666483E+00   4.541344E+00   4.402840E+00   4.262184E+00   4.144710E+00   4.046748E+00   4.001826E+00   3.997444E+00   4.042628E+00   4.127817E+00   4.226758E+00   4.359261E+00   4.514936E+00   4.710825E+00   4.934694E+00   5.205006E+00   5.455433E+00   5.643539E+00   5.717575E+00   5.675573E+00   5.513053E+00   5.266105E+00   4.981716E+00   4.677815E+00   4.378064E+00   4.084878E+00   3.801248E+00   3.529222E+00   3.281461E+00   3.065747E+00   2.875589E+00   2.743340E+00   2.652270E+00   2.600466E+00   2.586932E+00   2.617007E+00   2.693005E+00   2.816348E+00   2.984156E+00   3.191984E+00   3.408687E+00   3.632342E+00   3.836524E+00   4.016781E+00   4.146609E+00   4.244239E+00   4.310015E+00   4.361999E+00   4.400483E+00   4.423370E+00   4.430733E+00   4.437521E+00   4.415635E+00   4.374064E+00   4.306324E+00   4.231555E+00   4.167227E+00   4.107476E+00   4.083123E+00   4.095500E+00   4.140481E+00   4.191305E+00   4.206316E+00   4.196309E+00   4.158144E+00   4.116584E+00   4.076035E+00   4.039255E+00   4.009616E+00
   3.896434E+00   3.808160E+00   3.706794E+00   3.617295E+00   3.544272E+00   3.483598E+00   3.426653E+00   3.386594E+00   3.348863E+00   3.305336E+00   3.238079E+00   3.162517E+00   3.060876E+00   2.959095E+00   2.861509E+00   2.788628E+00   2.738475E+00   2.722563E+00   2.739337E+00   2.786026E+00   2.847464E+00   2.944682E+00   3.081688E+00   3.264290E+00   3.476817E+00   3.718636E+00   3.984018E+00   4.265278E+00   4.517045E+00   4.716806E+00   4.850766E+00   4.916051E+00   4.877996E+00   4.797040E+00   4.627327E+00   4.407733E+00   4.159460E+00   3.904317E+00   3.671121E+00   3.492006E+00   3.347465E+00   3.228704E+00   3.124343E+00   3.028051E+00   2.943465E+00   2.872762E+00   2.826848E+00   2.791131E+00   2.786320E+00   2.799834E+00   2.824685E+00   2.847681E+00   2.863962E+00   2.863207E+00   2.829955E+00   2.784611E+00   2.741411E+00   2.725905E+00   2.748678E+00   2.821367E+00   2.941005E+00   3.095368E+00   3.255977E+00   3.401198E+00   3.504265E+00   3.550861E+00   3.540670E+00   3.482771E+00   3.396530E+00   3.283244E+00   3.157501E+00   3.024457E+00   2.914058E+00   2.824543E+00   2.780890E+00   2.771708E+00   2.794904E+00   2.835384E+00   2.895172E+00   2.947021E+00   2.991710E+00   3.007722E+00   2.995473E+00   2.954766E+00   2.893828E+00   2.836643E+00   2.786429E+00   2.764047E+00   2.783666E+00   2.851639E+00   2.984621E+00   3.145260E+00   3.331376E+00   3.491864E+00   3.600778E+00   3.640413E+00   3.616506E+00   3.548700E+00   3.453811E+00   3.323809E+00   3.169335E+00   2.996042E+00   2.833133E+00   2.695160E+00   2.574393E+00   2.488316E+00   2.434419E+00   2.393975E+00   2.381336E+00   2.367259E+00   2.370808E+00   2.385309E+00   2.415976E+00   2.466175E+00   2.529939E+00   2.616186E+00   2.714332E+00   2.835448E+00   2.981775E+00   3.154831E+00   3.350048E+00   3.571151E+00   3.813215E+00   4.058991E+00   4.280543E+00   4.464056E+00   4.608683E+00   4.703886E+00   4.741385E+00   4.728757E+00   4.661983E+00   4.551398E+00   4.399871E+00   4.235946E+00   4.082216E+00   3.944497E+00   3.856327E+00   3.807173E+00   3.816149E+00   3.887477E+00   4.004964E+00   4.149789E+00   4.328974E+00   4.553385E+00   4.811228E+00   5.114419E+00   5.422256E+00   5.737422E+00   5.979046E+00   6.085161E+00   6.044333E+00   5.856291E+00   5.551660E+00   5.189013E+00   4.810746E+00   4.452376E+00   4.093049E+00   3.748959E+00   3.425406E+00   3.138830E+00   2.889668E+00   2.700941E+00   2.551068E+00   2.445519E+00   2.391918E+00   2.380679E+00   2.413199E+00   2.498005E+00   2.634534E+00   2.831733E+00   3.050554E+00   3.292598E+00   3.532660E+00   3.767322E+00   3.958939E+00   4.114031E+00   4.210256E+00   4.282467E+00   4.319985E+00   4.340043E+00   4.337893E+00   4.335255E+00   4.303184E+00   4.280921E+00   4.231356E+00   4.189256E+00   4.154957E+00   4.129410E+00   4.138437E+00   4.184919E+00   4.258586E+00   4.340733E+00   4.393890E+00   4.415571E+00   4.386082E+00   4.323373E+00   4.237098E+00   4.156114E+00   4.092034E+00   4.036569E+00
   3.901824E+00   3.809962E+00   3.713250E+00   3.630487E+00   3.558860E+00   3.493377E+00   3.438540E+00   3.387143E+00   3.350663E+00   3.289393E+00   3.217073E+00   3.122291E+00   3.024175E+00   2.923391E+00   2.832024E+00   2.753849E+00   2.702425E+00   2.679450E+00   2.700500E+00   2.743263E+00   2.818336E+00   2.927201E+00   3.056897E+00   3.230885E+00   3.438952E+00   3.676020E+00   3.933118E+00   4.188119E+00   4.435731E+00   4.642214E+00   4.792524E+00   4.872563E+00   4.908865E+00   4.864676E+00   4.746695E+00   4.554023E+00   4.323829E+00   4.030115E+00   3.758943E+00   3.508540E+00   3.313889E+00   3.156453E+00   3.022516E+00   2.903595E+00   2.799551E+00   2.721277E+00   2.671076E+00   2.638963E+00   2.636584E+00   2.670230E+00   2.738619E+00   2.822842E+00   2.909948E+00   2.960450E+00   2.976010E+00   2.960142E+00   2.945309E+00   2.944650E+00   2.982691E+00   3.057314E+00   3.184099E+00   3.341019E+00   3.498296E+00   3.626657E+00   3.702487E+00   3.704677E+00   3.642682E+00   3.534243E+00   3.393396E+00   3.236963E+00   3.073357E+00   2.923348E+00   2.787608E+00   2.690491E+00   2.640948E+00   2.635471E+00   2.664520E+00   2.728598E+00   2.799301E+00   2.865508E+00   2.917483E+00   2.930678E+00   2.905552E+00   2.851139E+00   2.781277E+00   2.704563E+00   2.636323E+00   2.598949E+00   2.598915E+00   2.653581E+00   2.769526E+00   2.935539E+00   3.119053E+00   3.298558E+00   3.442079E+00   3.518182E+00   3.534190E+00   3.508634E+00   3.444788E+00   3.340880E+00   3.192897E+00   3.013274E+00   2.849715E+00   2.707022E+00   2.596582E+00   2.519209E+00   2.464755E+00   2.428749E+00   2.405035E+00   2.407204E+00   2.422498E+00   2.448790E+00   2.486859E+00   2.553396E+00   2.621881E+00   2.698213E+00   2.789747E+00   2.883150E+00   3.000472E+00   3.141054E+00   3.319861E+00   3.524047E+00   3.753600E+00   3.991710E+00   4.187961E+00   4.355607E+00   4.461358E+00   4.499661E+00   4.505515E+00   4.484876E+00   4.418868E+00   4.309603E+00   4.154507E+00   4.001588E+00   3.840374E+00   3.701765E+00   3.600999E+00   3.565698E+00   3.584841E+00   3.674479E+00   3.811441E+00   4.004022E+00   4.232878E+00   4.505553E+00   4.816960E+00   5.151941E+00   5.489772E+00   5.837399E+00   6.113585E+00   6.269120E+00   6.251624E+00   6.082283E+00   5.759521E+00   5.355783E+00   4.928266E+00   4.505056E+00   4.099370E+00   3.720705E+00   3.368962E+00   3.066697E+00   2.811475E+00   2.601450E+00   2.445885E+00   2.332746E+00   2.271083E+00   2.255323E+00   2.288712E+00   2.376719E+00   2.523891E+00   2.715992E+00   2.945525E+00   3.191579E+00   3.444063E+00   3.689834E+00   3.914247E+00   4.080832E+00   4.193631E+00   4.247442E+00   4.280127E+00   4.268981E+00   4.248318E+00   4.206929E+00   4.172781E+00   4.135207E+00   4.107921E+00   4.081095E+00   4.088275E+00   4.122489E+00   4.193324E+00   4.300789E+00   4.423534E+00   4.541092E+00   4.623001E+00   4.633917E+00   4.597999E+00   4.522666E+00   4.414639E+00   4.300279E+00   4.189195E+00   4.089353E+00
   3.927782E+00   3.860642E+00   3.788666E+00   3.723270E+00   3.643822E+00   3.575216E+00   3.507369E+00   3.460403E+00   3.412923E+00   3.348078E+00   3.263447E+00   3.164770E+00   3.053560E+00   2.956906E+00   2.865583E+00   2.792111E+00   2.734056E+00   2.716973E+00   2.735442E+00   2.798694E+00   2.882409E+00   2.998405E+00   3.128630E+00   3.293678E+00   3.481015E+00   3.681802E+00   3.902002E+00   4.138585E+00   4.358840E+00   4.559593E+00   4.716451E+00   4.837407E+00   4.929097E+00   4.954704E+00   4.886714E+00   4.749281E+00   4.529088E+00   4.226991E+00   3.908219E+00   3.604156E+00   3.350932E+00   3.144517E+00   2.970722E+00   2.836960E+00   2.728177E+00   2.642660E+00   2.593681E+00   2.572451E+00   2.599650E+00   2.666900E+00   2.776030E+00   2.913291E+00   3.051441E+00   3.165861E+00   3.227870E+00   3.263684E+00   3.280999E+00   3.300908E+00   3.350692E+00   3.445343E+00   3.576199E+00   3.731907E+00   3.893893E+00   4.002122E+00   4.042050E+00   3.994803E+00   3.872093E+00   3.710311E+00   3.517159E+00   3.312553E+00   3.124554E+00   2.945595E+00   2.802515E+00   2.693649E+00   2.638106E+00   2.633345E+00   2.658705E+00   2.715899E+00   2.789065E+00   2.846711E+00   2.888904E+00   2.889661E+00   2.852141E+00   2.789299E+00   2.706139E+00   2.613333E+00   2.526264E+00   2.465079E+00   2.452099E+00   2.497677E+00   2.601582E+00   2.760705E+00   2.955762E+00   3.156224E+00   3.335137E+00   3.460772E+00   3.530656E+00   3.550673E+00   3.522484E+00   3.437011E+00   3.299852E+00   3.144256E+00   2.984829E+00   2.848111E+00   2.744168E+00   2.675827E+00   2.636513E+00   2.606540E+00   2.595180E+00   2.592620E+00   2.609687E+00   2.639700E+00   2.691602E+00   2.750999E+00   2.813169E+00   2.870800E+00   2.921441E+00   2.981057E+00   3.060625E+00   3.169451E+00   3.313499E+00   3.483030E+00   3.679487E+00   3.872009E+00   4.036510E+00   4.143093E+00   4.185451E+00   4.176248E+00   4.163380E+00   4.129814E+00   4.091910E+00   4.017687E+00   3.917291E+00   3.791186E+00   3.648029E+00   3.509022E+00   3.404733E+00   3.358065E+00   3.388732E+00   3.479664E+00   3.632183E+00   3.854037E+00   4.107799E+00   4.400875E+00   4.727169E+00   5.081730E+00   5.440372E+00   5.796996E+00   6.092449E+00   6.275127E+00   6.310712E+00   6.158484E+00   5.832662E+00   5.430222E+00   4.998945E+00   4.559132E+00   4.133605E+00   3.732277E+00   3.385778E+00   3.081144E+00   2.821669E+00   2.606862E+00   2.437579E+00   2.311710E+00   2.234643E+00   2.206830E+00   2.236131E+00   2.315505E+00   2.456489E+00   2.644686E+00   2.874086E+00   3.128720E+00   3.389953E+00   3.645238E+00   3.861995E+00   4.030799E+00   4.143533E+00   4.209900E+00   4.220856E+00   4.216547E+00   4.168369E+00   4.131472E+00   4.083981E+00   4.053457E+00   4.027290E+00   4.034102E+00   4.065467E+00   4.130084E+00   4.237392E+00   4.388248E+00   4.552827E+00   4.687582E+00   4.764329E+00   4.776374E+00   4.729413E+00   4.654778E+00   4.559211E+00   4.432618E+00   4.291574E+00   4.145117E+00
   3.979256E+00   3.956133E+00   3.916173E+00   3.846274E+00   3.787420E+00   3.702501E+00   3.640689E+00   3.585593E+00   3.538978E+00   3.470317E+00   3.375148E+00   3.261287E+00   3.137639E+00   3.033210E+00   2.943613E+00   2.872256E+00   2.820266E+00   2.791499E+00   2.820785E+00   2.884267E+00   2.985224E+00   3.111235E+00   3.237864E+00   3.392350E+00   3.557647E+00   3.740835E+00   3.942082E+00   4.131280E+00   4.331480E+00   4.529297E+00   4.722440E+00   4.876411E+00   4.994072E+00   5.068200E+00   5.074695E+00   4.980421E+00   4.779084E+00   4.475627E+00   4.123944E+00   3.773623E+00   3.476210E+00   3.219263E+00   3.016189E+00   2.855056E+00   2.731485E+00   2.650593E+00   2.602089E+00   2.606264E+00   2.658737E+00   2.753507E+00   2.901348E+00   3.083052E+00   3.264140E+00   3.424802E+00   3.535103E+00   3.600128E+00   3.640190E+00   3.670154E+00   3.741423E+00   3.854524E+00   4.002685E+00   4.173167E+00   4.335293E+00   4.433910E+00   4.436955E+00   4.350532E+00   4.187922E+00   3.979029E+00   3.748688E+00   3.519494E+00   3.294844E+00   3.103728E+00   2.943073E+00   2.831975E+00   2.759192E+00   2.729641E+00   2.734632E+00   2.771150E+00   2.823151E+00   2.866027E+00   2.879568E+00   2.861922E+00   2.807657E+00   2.741020E+00   2.650488E+00   2.550079E+00   2.459411E+00   2.393398E+00   2.381706E+00   2.431980E+00   2.542352E+00   2.698766E+00   2.900322E+00   3.110178E+00   3.316122E+00   3.494110E+00   3.620756E+00   3.674127E+00   3.670692E+00   3.599717E+00   3.484123E+00   3.344231E+00   3.200582E+00   3.072342E+00   2.982384E+00   2.926451E+00   2.896218E+00   2.879859E+00   2.874380E+00   2.873615E+00   2.885803E+00   2.914767E+00   2.965700E+00   3.022854E+00   3.066625E+00   3.108686E+00   3.122393E+00   3.139195E+00   3.170695E+00   3.221177E+00   3.308560E+00   3.420971E+00   3.553374E+00   3.683092E+00   3.774477E+00   3.814201E+00   3.802517E+00   3.771378E+00   3.743997E+00   3.736684E+00   3.735455E+00   3.736012E+00   3.699086E+00   3.620075E+00   3.521106E+00   3.398072E+00   3.291618E+00   3.229459E+00   3.249506E+00   3.343323E+00   3.512579E+00   3.753528E+00   4.030276E+00   4.332605E+00   4.645594E+00   4.978456E+00   5.325610E+00   5.670257E+00   5.978217E+00   6.190144E+00   6.239911E+00   6.110526E+00   5.834897E+00   5.472873E+00   5.047530E+00   4.617622E+00   4.185531E+00   3.798333E+00   3.451571E+00   3.153549E+00   2.899804E+00   2.673395E+00   2.492643E+00   2.357512E+00   2.272970E+00   2.236830E+00   2.258496E+00   2.327677E+00   2.456045E+00   2.632634E+00   2.854695E+00   3.111815E+00   3.386719E+00   3.643870E+00   3.849525E+00   4.000646E+00   4.092875E+00   4.132254E+00   4.143157E+00   4.116630E+00   4.074904E+00   4.032696E+00   3.995477E+00   3.960259E+00   3.949753E+00   3.955162E+00   4.000591E+00   4.075989E+00   4.202895E+00   4.372178E+00   4.537137E+00   4.675668E+00   4.759252E+00   4.768385E+00   4.728263E+00   4.656092E+00   4.567028E+00   4.446692E+00   4.311398E+00   4.159074E+00
   4.043945E+00   4.084259E+00   4.071577E+00   4.037489E+00   3.961173E+00   3.885407E+00   3.813994E+00   3.759922E+00   3.693510E+00   3.604654E+00   3.480668E+00   3.350811E+00   3.222009E+00   3.114796E+00   3.028347E+00   2.969174E+00   2.914308E+00   2.901618E+00   2.925052E+00   2.989801E+00   3.088942E+00   3.215231E+00   3.342892E+00   3.479510E+00   3.628111E+00   3.798257E+00   3.966565E+00   4.148497E+00   4.342546E+00   4.552450E+00   4.756916E+00   4.955220E+00   5.105652E+00   5.218008E+00   5.244245E+00   5.180510E+00   5.009454E+00   4.736660E+00   4.380879E+00   4.004069E+00   3.651949E+00   3.363904E+00   3.126829E+00   2.945174E+00   2.819693E+00   2.735880E+00   2.707079E+00   2.716796E+00   2.787225E+00   2.908918E+00   3.080294E+00   3.272168E+00   3.457947E+00   3.628175E+00   3.747781E+00   3.825986E+00   3.874182E+00   3.940790E+00   4.035802E+00   4.175272E+00   4.366238E+00   4.565513E+00   4.748432E+00   4.855361E+00   4.846828E+00   4.723211E+00   4.529405E+00   4.300512E+00   4.056080E+00   3.804775E+00   3.577008E+00   3.377774E+00   3.200886E+00   3.064739E+00   2.967089E+00   2.904810E+00   2.885120E+00   2.879663E+00   2.895269E+00   2.903928E+00   2.899040E+00   2.858231E+00   2.797734E+00   2.723347E+00   2.642204E+00   2.554496E+00   2.475171E+00   2.430151E+00   2.430963E+00   2.496581E+00   2.613268E+00   2.781732E+00   2.975688E+00   3.193212E+00   3.412122E+00   3.608058E+00   3.763453E+00   3.838119E+00   3.843100E+00   3.784976E+00   3.672996E+00   3.547218E+00   3.416332E+00   3.299148E+00   3.212911E+00   3.165075E+00   3.149332E+00   3.144145E+00   3.148439E+00   3.160362E+00   3.179353E+00   3.208012E+00   3.260668E+00   3.311408E+00   3.340876E+00   3.346238E+00   3.324877E+00   3.288139E+00   3.258526E+00   3.245140E+00   3.259858E+00   3.298020E+00   3.354363E+00   3.410013E+00   3.442189E+00   3.444087E+00   3.414989E+00   3.382030E+00   3.374831E+00   3.390007E+00   3.444671E+00   3.502597E+00   3.535429E+00   3.518967E+00   3.461859E+00   3.369490E+00   3.284311E+00   3.227745E+00   3.242836E+00   3.322311E+00   3.490802E+00   3.741471E+00   4.034152E+00   4.338605E+00   4.636324E+00   4.931702E+00   5.239868E+00   5.557113E+00   5.846918E+00   6.059841E+00   6.143513E+00   6.063247E+00   5.840443E+00   5.502064E+00   5.102848E+00   4.675621E+00   4.269864E+00   3.886211E+00   3.560280E+00   3.278229E+00   3.028558E+00   2.793934E+00   2.601235E+00   2.452745E+00   2.352469E+00   2.309501E+00   2.314522E+00   2.382988E+00   2.500222E+00   2.669563E+00   2.872561E+00   3.123407E+00   3.385822E+00   3.628155E+00   3.815627E+00   3.944608E+00   4.012472E+00   4.036190E+00   4.032248E+00   3.990557E+00   3.961118E+00   3.941235E+00   3.915061E+00   3.893359E+00   3.875747E+00   3.878344E+00   3.913883E+00   3.978860E+00   4.088330E+00   4.229219E+00   4.381808E+00   4.501000E+00   4.581656E+00   4.594304E+00   4.576002E+00   4.527749E+00   4.442927E+00   4.360941E+00   4.255202E+00   4.139300E+00
   4.118200E+00   4.210860E+00   4.262826E+00   4.250214E+00   4.208757E+00   4.125455E+00   4.065546E+00   3.997807E+00   3.909721E+00   3.780133E+00   3.619318E+00   3.459574E+00   3.315977E+00   3.197345E+00   3.116356E+00   3.068845E+00   3.036839E+00   3.025107E+00   3.038237E+00   3.091819E+00   3.171326E+00   3.277059E+00   3.404416E+00   3.532819E+00   3.673219E+00   3.817322E+00   3.980881E+00   4.160376E+00   4.384212E+00   4.597079E+00   4.814465E+00   5.006518E+00   5.182085E+00   5.289865E+00   5.336408E+00   5.285648E+00   5.156577E+00   4.925422E+00   4.611937E+00   4.239686E+00   3.877854E+00   3.554570E+00   3.295393E+00   3.101401E+00   2.960020E+00   2.877410E+00   2.847065E+00   2.876775E+00   2.957761E+00   3.078294E+00   3.238190E+00   3.413653E+00   3.595336E+00   3.736260E+00   3.842567E+00   3.909770E+00   3.973147E+00   4.057794E+00   4.187210E+00   4.375957E+00   4.611307E+00   4.858507E+00   5.050691E+00   5.163950E+00   5.161125E+00   5.043271E+00   4.841955E+00   4.609355E+00   4.365026E+00   4.126686E+00   3.915829E+00   3.719156E+00   3.533921E+00   3.380998E+00   3.237317E+00   3.137059E+00   3.067027E+00   3.019055E+00   2.985540E+00   2.954721E+00   2.919972E+00   2.866459E+00   2.803895E+00   2.741536E+00   2.668850E+00   2.616232E+00   2.575627E+00   2.565549E+00   2.600979E+00   2.681598E+00   2.828717E+00   3.010586E+00   3.223015E+00   3.450070E+00   3.653676E+00   3.813166E+00   3.943366E+00   4.020791E+00   4.009463E+00   3.952750E+00   3.842073E+00   3.726819E+00   3.610575E+00   3.506832E+00   3.426254E+00   3.373804E+00   3.343265E+00   3.344398E+00   3.354881E+00   3.380470E+00   3.413996E+00   3.450109E+00   3.492969E+00   3.513755E+00   3.511824E+00   3.486691E+00   3.433379E+00   3.358893E+00   3.270725E+00   3.190259E+00   3.132972E+00   3.100500E+00   3.091448E+00   3.086338E+00   3.077393E+00   3.064348E+00   3.046100E+00   3.046381E+00   3.069653E+00   3.128834E+00   3.219582E+00   3.329555E+00   3.413078E+00   3.460557E+00   3.453848E+00   3.415641E+00   3.354434E+00   3.319509E+00   3.333642E+00   3.424832E+00   3.583201E+00   3.817871E+00   4.090773E+00   4.375933E+00   4.642450E+00   4.914806E+00   5.188853E+00   5.481572E+00   5.739042E+00   5.936746E+00   6.020871E+00   5.969298E+00   5.783380E+00   5.506796E+00   5.158503E+00   4.774075E+00   4.398827E+00   4.037236E+00   3.707930E+00   3.425373E+00   3.169427E+00   2.936464E+00   2.729810E+00   2.577021E+00   2.473110E+00   2.423353E+00   2.431157E+00   2.485859E+00   2.602339E+00   2.752553E+00   2.949443E+00   3.173539E+00   3.409754E+00   3.627566E+00   3.804756E+00   3.901818E+00   3.956010E+00   3.969280E+00   3.953918E+00   3.918261E+00   3.893517E+00   3.873169E+00   3.862628E+00   3.836520E+00   3.818274E+00   3.802685E+00   3.816031E+00   3.857517E+00   3.934105E+00   4.037916E+00   4.145365E+00   4.244086E+00   4.295581E+00   4.320927E+00   4.321004E+00   4.298440E+00   4.258533E+00   4.217386E+00   4.165546E+00   4.084887E+00