# LPF package for  MODFLOW-2005, generated by Flopy.
         0    -1E+30         0  
         0
         0
   1.000000E+00
         0
         0
INTERNAL               1 (200E15.6) -1 #hk layer 1                    
   3.962772E+00   3.935229E+00   3.904561E+00   3.862535E+00   3.833779E+00   3.813347E+00   3.801986E+00   3.789243E+00   3.787627E+00   3.761366E+00   3.731936E+00   3.688913E+00   3.641684E+00   3.585282E+00   3.527692E+00   3.488798E+00   3.471301E+00   3.475632E+00   3.487910E+00   3.515028E+00   3.555553E+00   3.610286E+00   3.676313E+00   3.769812E+00   3.856481E+00   3.942642E+00   4.023985E+00   4.102534E+00   4.173256E+00   4.228732E+00   4.263307E+00   4.277977E+00   4.262288E+00   4.208568E+00   4.143957E+00   4.060899E+00   3.983548E+00   3.902420E+00   3.837292E+00   3.780419E+00   3.734409E+00   3.705097E+00   3.677752E+00   3.641568E+00   3.612254E+00   3.596323E+00   3.597955E+00   3.596510E+00   3.597114E+00   3.587728E+00   3.565930E+00   3.538520E+00   3.502659E+00   3.460983E+00   3.425256E+00   3.380523E+00   3.348225E+00   3.330808E+00   3.342789E+00   3.384993E+00   3.438122E+00   3.508912E+00   3.589277E+00   3.667855E+00   3.725238E+00   3.774516E+00   3.804099E+00   3.824328E+00   3.826265E+00   3.806298E+00   3.768833E+00   3.724402E+00   3.683978E+00   3.658876E+00   3.654730E+00   3.647135E+00   3.655374E+00   3.651664E+00   3.644470E+00   3.635054E+00   3.635667E+00   3.623661E+00   3.611337E+00   3.599397E+00   3.583008E+00   3.572162E+00   3.569939E+00   3.582259E+00   3.598222E+00   3.649017E+00   3.714883E+00   3.790883E+00   3.863249E+00   3.918281E+00   3.937999E+00   3.934209E+00   3.911703E+00   3.868061E+00   3.820084E+00   3.755126E+00   3.688697E+00   3.614261E+00   3.538729E+00   3.483441E+00   3.436725E+00   3.398545E+00   3.375386E+00   3.354307E+00   3.352381E+00   3.340884E+00   3.328637E+00   3.308963E+00   3.299387E+00   3.305072E+00   3.313914E+00   3.344063E+00   3.403464E+00   3.481959E+00   3.577462E+00   3.681923E+00   3.773149E+00   3.873384E+00   3.963005E+00   4.047308E+00   4.127006E+00   4.192494E+00   4.268085E+00   4.325046E+00   4.356672E+00   4.372962E+00   4.360154E+00   4.335528E+00   4.308347E+00   4.267592E+00   4.212997E+00   4.169103E+00   4.111124E+00   4.072424E+00   4.050558E+00   4.051716E+00   4.074433E+00   4.107008E+00   4.158998E+00   4.213515E+00   4.279708E+00   4.349281E+00   4.431552E+00   4.525329E+00   4.590845E+00   4.617060E+00   4.595959E+00   4.545445E+00   4.457959E+00   4.371006E+00   4.269303E+00   4.164039E+00   4.064043E+00   3.962103E+00   3.866474E+00   3.760664E+00   3.673454E+00   3.572942E+00   3.493685E+00   3.439861E+00   3.401721E+00   3.384943E+00   3.388989E+00   3.415065E+00   3.461262E+00   3.544774E+00   3.647630E+00   3.756729E+00   3.870497E+00   3.969528E+00   4.043434E+00   4.094727E+00   4.129359E+00   4.160805E+00   4.187352E+00   4.202439E+00   4.222291E+00   4.238411E+00   4.251827E+00   4.250548E+00   4.239075E+00   4.202381E+00   4.153292E+00   4.090143E+00   4.032269E+00   3.993830E+00   3.975748E+00   3.977560E+00   3.985449E+00   4.000442E+00   4.005242E+00   4.010261E+00   4.009920E+00   3.991148E+00   3.983147E+00   3.979263E+00
   3.931057E+00   3.887663E+00   3.829690E+00   3.762474E+00   3.694392E+00   3.655347E+00   3.623340E+00   3.599564E+00   3.585302E+00   3.568898E+00   3.518037E+00   3.458810E+00   3.366162E+00   3.277557E+00   3.189000E+00   3.124333E+00   3.088139E+00   3.089514E+00   3.108965E+00   3.146055E+00   3.207064E+00   3.294944E+00   3.409000E+00   3.546276E+00   3.701375E+00   3.869433E+00   4.044170E+00   4.212801E+00   4.363697E+00   4.476564E+00   4.542445E+00   4.578185E+00   4.539107E+00   4.449670E+00   4.313578E+00   4.166738E+00   4.016763E+00   3.866377E+00   3.721228E+00   3.617279E+00   3.532175E+00   3.477716E+00   3.426791E+00   3.378338E+00   3.327116E+00   3.299598E+00   3.291597E+00   3.285704E+00   3.283007E+00   3.269605E+00   3.242058E+00   3.198198E+00   3.152017E+00   3.091692E+00   3.019302E+00   2.953135E+00   2.904888E+00   2.881561E+00   2.897124E+00   2.956173E+00   3.048677E+00   3.177896E+00   3.316971E+00   3.439960E+00   3.541519E+00   3.620866E+00   3.660437E+00   3.671498E+00   3.655081E+00   3.608258E+00   3.537203E+00   3.463345E+00   3.395029E+00   3.346701E+00   3.318255E+00   3.305672E+00   3.306653E+00   3.317121E+00   3.330594E+00   3.344505E+00   3.346035E+00   3.339549E+00   3.320193E+00   3.291479E+00   3.255491E+00   3.224071E+00   3.214247E+00   3.223230E+00   3.256922E+00   3.326726E+00   3.449550E+00   3.571580E+00   3.708041E+00   3.808106E+00   3.860807E+00   3.865808E+00   3.817378E+00   3.748048E+00   3.658785E+00   3.553026E+00   3.436021E+00   3.309197E+00   3.182692E+00   3.081953E+00   3.002668E+00   2.939498E+00   2.898991E+00   2.875585E+00   2.857896E+00   2.842707E+00   2.823240E+00   2.810655E+00   2.814672E+00   2.824182E+00   2.855931E+00   2.913415E+00   2.997118E+00   3.108516E+00   3.251850E+00   3.408308E+00   3.571043E+00   3.748581E+00   3.919986E+00   4.086922E+00   4.236269E+00   4.381710E+00   4.511575E+00   4.608004E+00   4.648603E+00   4.659089E+00   4.639153E+00   4.593688E+00   4.519196E+00   4.415763E+00   4.309693E+00   4.212668E+00   4.140299E+00   4.086941E+00   4.074053E+00   4.088942E+00   4.139342E+00   4.223208E+00   4.297884E+00   4.407497E+00   4.526473E+00   4.681627E+00   4.855283E+00   5.038563E+00   5.183237E+00   5.230953E+00   5.195884E+00   5.073012E+00   4.905475E+00   4.710621E+00   4.497517E+00   4.284721E+00   4.077223E+00   3.883495E+00   3.689372E+00   3.512980E+00   3.338917E+00   3.194711E+00   3.066825E+00   2.985929E+00   2.935484E+00   2.910647E+00   2.918892E+00   2.971443E+00   3.068120E+00   3.207796E+00   3.373797E+00   3.558032E+00   3.746374E+00   3.909550E+00   4.045548E+00   4.142229E+00   4.213276E+00   4.270738E+00   4.313165E+00   4.348091E+00   4.379419E+00   4.414843E+00   4.425212E+00   4.420468E+00   4.382361E+00   4.329069E+00   4.248175E+00   4.153458E+00   4.068839E+00   4.005351E+00   4.004413E+00   4.019247E+00   4.045194E+00   4.059846E+00   4.058180E+00   4.054893E+00   4.036899E+00   4.011745E+00   3.986681E+00   3.982296E+00
   3.911389E+00   3.831402E+00   3.748963E+00   3.665136E+00   3.598187E+00   3.527247E+00   3.481785E+00   3.447879E+00   3.426064E+00   3.389549E+00   3.342015E+00   3.261330E+00   3.174406E+00   3.070384E+00   2.974489E+00   2.897201E+00   2.853254E+00   2.845985E+00   2.866263E+00   2.912578E+00   2.976592E+00   3.079297E+00   3.215886E+00   3.387651E+00   3.577053E+00   3.793327E+00   4.037858E+00   4.276375E+00   4.495121E+00   4.657063E+00   4.767837E+00   4.800918E+00   4.762299E+00   4.652196E+00   4.500154E+00   4.292642E+00   4.082115E+00   3.863069E+00   3.679977E+00   3.528670E+00   3.416100E+00   3.325435E+00   3.259284E+00   3.194682E+00   3.127119E+00   3.063878E+00   3.039249E+00   3.014185E+00   3.012204E+00   3.011135E+00   3.004552E+00   2.979335E+00   2.953212E+00   2.897893E+00   2.834813E+00   2.772768E+00   2.718005E+00   2.692088E+00   2.710003E+00   2.779475E+00   2.894051E+00   3.039005E+00   3.197413E+00   3.348335E+00   3.465843E+00   3.537326E+00   3.566250E+00   3.555527E+00   3.506068E+00   3.430257E+00   3.324209E+00   3.222985E+00   3.129969E+00   3.063115E+00   3.021066E+00   3.000713E+00   3.008557E+00   3.033312E+00   3.074419E+00   3.110927E+00   3.130897E+00   3.131318E+00   3.116525E+00   3.074083E+00   3.034279E+00   2.993293E+00   2.964975E+00   2.957768E+00   2.984581E+00   3.066807E+00   3.196381E+00   3.362186E+00   3.523850E+00   3.667833E+00   3.738729E+00   3.748356E+00   3.707630E+00   3.629590E+00   3.533597E+00   3.403267E+00   3.255685E+00   3.101732E+00   2.952992E+00   2.817215E+00   2.714378E+00   2.633817E+00   2.576736E+00   2.543728E+00   2.525992E+00   2.512432E+00   2.502552E+00   2.501375E+00   2.520724E+00   2.552656E+00   2.595527E+00   2.672125E+00   2.769274E+00   2.892612E+00   3.056115E+00   3.237006E+00   3.429848E+00   3.652818E+00   3.877970E+00   4.097722E+00   4.299306E+00   4.472157E+00   4.633038E+00   4.738439E+00   4.800420E+00   4.799467E+00   4.754881E+00   4.666739E+00   4.541675E+00   4.403238E+00   4.262643E+00   4.145230E+00   4.047331E+00   4.002470E+00   3.998152E+00   4.043391E+00   4.128627E+00   4.227597E+00   4.360108E+00   4.515772E+00   4.711627E+00   4.935442E+00   5.205681E+00   5.456009E+00   5.643991E+00   5.717882E+00   5.675738E+00   5.513088E+00   5.266027E+00   4.981551E+00   4.677580E+00   4.377771E+00   4.084536E+00   3.800857E+00   3.528784E+00   3.280983E+00   3.065231E+00   2.875048E+00   2.742782E+00   2.651701E+00   2.599894E+00   2.586361E+00   2.616431E+00   2.692413E+00   2.815720E+00   2.983477E+00   3.191234E+00   3.407873E+00   3.631473E+00   3.835632E+00   4.015892E+00   4.145764E+00   4.243467E+00   4.309361E+00   4.361493E+00   4.400155E+00   4.423238E+00   4.430810E+00   4.437803E+00   4.416106E+00   4.374689E+00   4.307062E+00   4.232352E+00   4.168045E+00   4.108270E+00   4.083869E+00   4.096167E+00   4.141052E+00   4.191761E+00   4.206651E+00   4.196530E+00   4.158275E+00   4.116653E+00   4.076065E+00   4.039265E+00   4.009620E+00
   3.896311E+00   3.807923E+00   3.706458E+00   3.616871E+00   3.543768E+00   3.483018E+00   3.426005E+00   3.385887E+00   3.348109E+00   3.304554E+00   3.237297E+00   3.161755E+00   3.060158E+00   2.958435E+00   2.860913E+00   2.788097E+00   2.738007E+00   2.722152E+00   2.738974E+00   2.785705E+00   2.847177E+00   2.944412E+00   3.081418E+00   3.264000E+00   3.476485E+00   3.718243E+00   3.983555E+00   4.264736E+00   4.516438E+00   4.716152E+00   4.850093E+00   4.915383E+00   4.877379E+00   4.796492E+00   4.626887E+00   4.407419E+00   4.159286E+00   3.904281E+00   3.671211E+00   3.492205E+00   3.347754E+00   3.229065E+00   3.124763E+00   3.028513E+00   2.943957E+00   2.873273E+00   2.827365E+00   2.791635E+00   2.786801E+00   2.800282E+00   2.825094E+00   2.848046E+00   2.864293E+00   2.863518E+00   2.830255E+00   2.784915E+00   2.741735E+00   2.726260E+00   2.749076E+00   2.821820E+00   2.941524E+00   3.095958E+00   3.256651E+00   3.401958E+00   3.505102E+00   3.551753E+00   3.541594E+00   3.483696E+00   3.397429E+00   3.284086E+00   3.158263E+00   3.025128E+00   2.914629E+00   2.825016E+00   2.781272E+00   2.772014E+00   2.795150E+00   2.835591E+00   2.895363E+00   2.947214E+00   2.991921E+00   3.007961E+00   2.995739E+00   2.955054E+00   2.894133E+00   2.836958E+00   2.786746E+00   2.764355E+00   2.783955E+00   2.851902E+00   2.984848E+00   3.145444E+00   3.331500E+00   3.491922E+00   3.600761E+00   3.640318E+00   3.616329E+00   3.548445E+00   3.453484E+00   3.323424E+00   3.168906E+00   2.995593E+00   2.832680E+00   2.694719E+00   2.573980E+00   2.487944E+00   2.434102E+00   2.393733E+00   2.381183E+00   2.367208E+00   2.370860E+00   2.385458E+00   2.416209E+00   2.466475E+00   2.530288E+00   2.616560E+00   2.714708E+00   2.835808E+00   2.982109E+00   3.155124E+00   3.350289E+00   3.571334E+00   3.813332E+00   4.059052E+00   4.280556E+00   4.464042E+00   4.608663E+00   4.703897E+00   4.741456E+00   4.728911E+00   4.662229E+00   4.551725E+00   4.400266E+00   4.236401E+00   4.082726E+00   3.945063E+00   3.856951E+00   3.807857E+00   3.816893E+00   3.888282E+00   4.005826E+00   4.150692E+00   4.329906E+00   4.554322E+00   4.812147E+00   5.115290E+00   5.423057E+00   5.738122E+00   5.979612E+00   6.085571E+00   6.044581E+00   5.856390E+00   5.551630E+00   5.188875E+00   4.810525E+00   4.452083E+00   4.092693E+00   3.748549E+00   3.424946E+00   3.138323E+00   2.889127E+00   2.700369E+00   2.550478E+00   2.444919E+00   2.391310E+00   2.380063E+00   2.412568E+00   2.497344E+00   2.633822E+00   2.830946E+00   3.049687E+00   3.291649E+00   3.531654E+00   3.766286E+00   3.957919E+00   4.113070E+00   4.209408E+00   4.281768E+00   4.319479E+00   4.339755E+00   4.337843E+00   4.335454E+00   4.303623E+00   4.281575E+00   4.232185E+00   4.190208E+00   4.155982E+00   4.130453E+00   4.139467E+00   4.185894E+00   4.259473E+00   4.341499E+00   4.394512E+00   4.416037E+00   4.386406E+00   4.323584E+00   4.237224E+00   4.156187E+00   4.092068E+00   4.036584E+00
   3.901682E+00   3.809686E+00   3.712856E+00   3.629989E+00   3.558267E+00   3.492699E+00   3.437781E+00   3.386316E+00   3.349777E+00   3.288481E+00   3.216157E+00   3.121398E+00   3.023324E+00   2.922597E+00   2.831299E+00   2.753196E+00   2.701842E+00   2.678934E+00   2.700040E+00   2.742857E+00   2.817971E+00   2.926862E+00   3.056565E+00   3.230541E+00   3.438572E+00   3.675590E+00   3.932620E+00   4.187554E+00   4.435095E+00   4.641520E+00   4.791791E+00   4.871828E+00   4.908146E+00   4.864019E+00   4.746135E+00   4.553602E+00   4.323561E+00   4.030012E+00   3.758994E+00   3.508727E+00   3.314191E+00   3.156849E+00   3.022992E+00   2.904132E+00   2.800136E+00   2.721897E+00   2.671717E+00   2.639606E+00   2.637213E+00   2.670834E+00   2.739184E+00   2.823365E+00   2.910433E+00   2.960903E+00   2.976444E+00   2.960570E+00   2.945751E+00   2.945124E+00   2.983210E+00   3.057891E+00   3.184746E+00   3.341752E+00   3.499119E+00   3.627566E+00   3.703468E+00   3.705708E+00   3.643730E+00   3.535282E+00   3.394397E+00   3.237896E+00   3.074202E+00   2.924096E+00   2.788259E+00   2.691045E+00   2.641419E+00   2.635872E+00   2.664867E+00   2.728910E+00   2.799594E+00   2.865802E+00   2.917789E+00   2.931001E+00   2.905894E+00   2.851494E+00   2.781639E+00   2.704926E+00   2.636681E+00   2.599292E+00   2.599240E+00   2.653877E+00   2.769792E+00   2.935759E+00   3.119219E+00   3.298652E+00   3.442092E+00   3.518107E+00   3.534025E+00   3.508383E+00   3.444456E+00   3.340479E+00   3.192450E+00   3.012805E+00   2.849243E+00   2.706565E+00   2.596152E+00   2.518819E+00   2.464424E+00   2.428495E+00   2.404876E+00   2.407152E+00   2.422556E+00   2.448954E+00   2.487114E+00   2.553727E+00   2.622268E+00   2.698629E+00   2.790166E+00   2.883548E+00   3.000835E+00   3.141371E+00   3.320120E+00   3.524240E+00   3.753732E+00   3.991784E+00   4.187995E+00   4.355621E+00   4.461385E+00   4.499723E+00   4.505641E+00   4.485081E+00   4.419157E+00   4.309961E+00   4.154926E+00   4.002055E+00   3.840885E+00   3.702319E+00   3.601601E+00   3.566351E+00   3.585549E+00   3.675245E+00   3.812267E+00   4.004908E+00   4.233804E+00   4.506505E+00   4.817907E+00   5.152861E+00   5.490642E+00   5.838190E+00   6.114259E+00   6.269650E+00   6.251995E+00   6.082492E+00   5.759585E+00   5.355730E+00   4.928115E+00   4.504826E+00   4.099068E+00   3.720341E+00   3.368540E+00   3.066226E+00   2.810962E+00   2.600908E+00   2.445324E+00   2.332173E+00   2.270499E+00   2.254725E+00   2.288090E+00   2.376056E+00   2.523165E+00   2.715193E+00   2.944637E+00   3.190610E+00   3.443033E+00   3.688781E+00   3.913215E+00   4.079882E+00   4.192811E+00   4.246807E+00   4.279701E+00   4.268797E+00   4.248394E+00   4.207268E+00   4.173375E+00   4.136024E+00   4.108923E+00   4.082233E+00   4.089491E+00   4.123742E+00   4.194560E+00   4.301971E+00   4.424614E+00   4.542036E+00   4.623775E+00   4.634510E+00   4.598423E+00   4.522950E+00   4.414820E+00   4.300380E+00   4.189250E+00   4.089374E+00
   3.927623E+00   3.860332E+00   3.788219E+00   3.722700E+00   3.643148E+00   3.574445E+00   3.506513E+00   3.459465E+00   3.411923E+00   3.347040E+00   3.262396E+00   3.163736E+00   3.052570E+00   2.955976E+00   2.864726E+00   2.791330E+00   2.733354E+00   2.716347E+00   2.734886E+00   2.798199E+00   2.881966E+00   2.997995E+00   3.128239E+00   3.293281E+00   3.480596E+00   3.681340E+00   3.901491E+00   4.138007E+00   4.358197E+00   4.558877E+00   4.715683E+00   4.836607E+00   4.928295E+00   4.953932E+00   4.886029E+00   4.748724E+00   4.528701E+00   4.226787E+00   3.908196E+00   3.604292E+00   3.351209E+00   3.144911E+00   2.971215E+00   2.837533E+00   2.728814E+00   2.643348E+00   2.594407E+00   2.573196E+00   2.600406E+00   2.667649E+00   2.776761E+00   2.913991E+00   3.052107E+00   3.166495E+00   3.228479E+00   3.264278E+00   3.281597E+00   3.301525E+00   3.351349E+00   3.446059E+00   3.576990E+00   3.732781E+00   3.894861E+00   4.003175E+00   4.043168E+00   3.995955E+00   3.873251E+00   3.711448E+00   3.518248E+00   3.313567E+00   3.125476E+00   2.946418E+00   2.803240E+00   2.694287E+00   2.638669E+00   2.633847E+00   2.659160E+00   2.716322E+00   2.789471E+00   2.847111E+00   2.889307E+00   2.890071E+00   2.852556E+00   2.789717E+00   2.706556E+00   2.613740E+00   2.526658E+00   2.465454E+00   2.452448E+00   2.497997E+00   2.601866E+00   2.760948E+00   2.955950E+00   3.156340E+00   3.335168E+00   3.460708E+00   3.530499E+00   3.550426E+00   3.522157E+00   3.436620E+00   3.299415E+00   3.143795E+00   2.984371E+00   2.847670E+00   2.743757E+00   2.675459E+00   2.636202E+00   2.606307E+00   2.595041E+00   2.592585E+00   2.609759E+00   2.639876E+00   2.691869E+00   2.751343E+00   2.813565E+00   2.871220E+00   2.921854E+00   2.981442E+00   3.060966E+00   3.169742E+00   3.313731E+00   3.483201E+00   3.679600E+00   3.872074E+00   4.036545E+00   4.143122E+00   4.185502E+00   4.176349E+00   4.163539E+00   4.130045E+00   4.092207E+00   4.018044E+00   3.917694E+00   3.791631E+00   3.648507E+00   3.509537E+00   3.405289E+00   3.358667E+00   3.389385E+00   3.480371E+00   3.632954E+00   3.854874E+00   4.108692E+00   4.401805E+00   4.728113E+00   5.082668E+00   5.441283E+00   5.797854E+00   6.093221E+00   6.275788E+00   6.311229E+00   6.158851E+00   5.832882E+00   5.430312E+00   4.998923E+00   4.559011E+00   4.133403E+00   3.732002E+00   3.385439E+00   3.080749E+00   2.821232E+00   2.606397E+00   2.437094E+00   2.311213E+00   2.234134E+00   2.206305E+00   2.235578E+00   2.314910E+00   2.455836E+00   2.643965E+00   2.873290E+00   3.127847E+00   3.389028E+00   3.644289E+00   3.861079E+00   4.029969E+00   4.142852E+00   4.209403E+00   4.220585E+00   4.216516E+00   4.168602E+00   4.131973E+00   4.084730E+00   4.054426E+00   4.028441E+00   4.035394E+00   4.066852E+00   4.131500E+00   4.238801E+00   4.389598E+00   4.554073E+00   4.688670E+00   4.765232E+00   4.777073E+00   4.729922E+00   4.655127E+00   4.559427E+00   4.432745E+00   4.291640E+00   4.145144E+00
   3.979088E+00   3.955799E+00   3.915692E+00   3.845660E+00   3.786688E+00   3.701667E+00   3.639753E+00   3.584570E+00   3.537877E+00   3.469162E+00   3.373971E+00   3.260119E+00   3.136513E+00   3.032145E+00   2.942624E+00   2.871351E+00   2.819450E+00   2.790774E+00   2.820140E+00   2.883693E+00   2.984709E+00   3.110760E+00   3.237420E+00   3.391913E+00   3.557198E+00   3.740353E+00   3.941547E+00   4.130693E+00   4.330815E+00   4.528560E+00   4.721624E+00   4.875548E+00   4.993177E+00   5.067312E+00   5.073861E+00   4.979708E+00   4.778536E+00   4.475283E+00   4.123798E+00   3.773666E+00   3.476416E+00   3.219611E+00   3.016652E+00   2.855615E+00   2.732122E+00   2.651297E+00   2.602844E+00   2.607064E+00   2.659573E+00   2.754367E+00   2.902217E+00   3.083919E+00   3.264989E+00   3.425629E+00   3.535902E+00   3.600905E+00   3.640954E+00   3.670924E+00   3.742221E+00   3.855372E+00   4.003595E+00   4.174155E+00   4.336366E+00   4.435063E+00   4.438161E+00   4.351766E+00   4.189152E+00   3.980233E+00   3.749843E+00   3.520575E+00   3.295834E+00   3.104625E+00   2.943882E+00   2.832705E+00   2.759853E+00   2.730247E+00   2.735196E+00   2.771685E+00   2.823668E+00   2.866534E+00   2.880068E+00   2.862415E+00   2.808147E+00   2.741504E+00   2.650961E+00   2.550534E+00   2.459841E+00   2.393798E+00   2.382075E+00   2.432313E+00   2.542648E+00   2.699017E+00   2.900517E+00   3.110302E+00   3.316159E+00   3.494051E+00   3.620606E+00   3.673896E+00   3.670389E+00   3.599357E+00   3.483728E+00   3.343820E+00   3.200176E+00   3.071959E+00   2.982036E+00   2.926147E+00   2.895973E+00   2.879686E+00   2.874290E+00   2.873615E+00   2.885895E+00   2.914947E+00   2.965960E+00   3.023174E+00   3.066986E+00   3.109058E+00   3.122750E+00   3.139515E+00   3.170968E+00   3.221399E+00   3.308726E+00   3.421084E+00   3.553440E+00   3.683126E+00   3.774500E+00   3.814238E+00   3.802593E+00   3.771505E+00   3.744181E+00   3.736922E+00   3.735743E+00   3.736340E+00   3.699452E+00   3.620469E+00   3.521532E+00   3.398530E+00   3.292116E+00   3.230002E+00   3.250106E+00   3.343982E+00   3.513308E+00   3.754330E+00   4.031145E+00   4.333525E+00   4.646547E+00   4.979424E+00   5.326576E+00   5.671198E+00   5.979109E+00   6.190949E+00   6.240601E+00   6.111077E+00   5.835306E+00   5.473143E+00   5.047677E+00   4.617657E+00   4.185472E+00   3.798189E+00   3.451359E+00   3.153279E+00   2.899492E+00   2.673054E+00   2.492283E+00   2.357136E+00   2.272580E+00   2.236423E+00   2.258066E+00   2.327213E+00   2.455537E+00   2.632073E+00   2.854074E+00   3.111139E+00   3.386001E+00   3.643143E+00   3.848836E+00   4.000055E+00   4.092427E+00   4.131999E+00   4.143108E+00   4.116815E+00   4.075331E+00   4.033367E+00   3.996378E+00   3.961365E+00   3.951027E+00   3.956568E+00   4.002081E+00   4.077516E+00   4.204406E+00   4.373638E+00   4.538483E+00   4.676853E+00   4.760236E+00   4.769156E+00   4.728826E+00   4.656471E+00   4.567261E+00   4.446823E+00   4.311465E+00   4.159103E+00
   4.043778E+00   4.083927E+00   4.071089E+00   4.036859E+00   3.960419E+00   3.884538E+00   3.813012E+00   3.758832E+00   3.692330E+00   3.603411E+00   3.479399E+00   3.349549E+00   3.220784E+00   3.113627E+00   3.027252E+00   2.968163E+00   2.913397E+00   2.900806E+00   2.924335E+00   2.989172E+00   3.088382E+00   3.214727E+00   3.342427E+00   3.479066E+00   3.627664E+00   3.797780E+00   3.966041E+00   4.147910E+00   4.341884E+00   4.551690E+00   4.756067E+00   4.954282E+00   5.104663E+00   5.216990E+00   5.243262E+00   5.179617E+00   5.008721E+00   4.736119E+00   4.380558E+00   4.003953E+00   3.652025E+00   3.364134E+00   3.127194E+00   2.945649E+00   2.820262E+00   2.736531E+00   2.707803E+00   2.717588E+00   2.788082E+00   2.909831E+00   3.081250E+00   3.273149E+00   3.458930E+00   3.629143E+00   3.748721E+00   3.826895E+00   3.875069E+00   3.941673E+00   4.036701E+00   4.176206E+00   4.367218E+00   4.566552E+00   4.749537E+00   4.856534E+00   4.848046E+00   4.724448E+00   4.530641E+00   4.301729E+00   4.057256E+00   3.805887E+00   3.578046E+00   3.378739E+00   3.201776E+00   3.065562E+00   2.967856E+00   2.905530E+00   2.885804E+00   2.880323E+00   2.895908E+00   2.904550E+00   2.899646E+00   2.858821E+00   2.798307E+00   2.723902E+00   2.642736E+00   2.555000E+00   2.475637E+00   2.430580E+00   2.431350E+00   2.496928E+00   2.613569E+00   2.781979E+00   2.975869E+00   3.193315E+00   3.412138E+00   3.607984E+00   3.763300E+00   3.837897E+00   3.842826E+00   3.784666E+00   3.672671E+00   3.546892E+00   3.416023E+00   3.298867E+00   3.212667E+00   3.164875E+00   3.149185E+00   3.144061E+00   3.148421E+00   3.160403E+00   3.179458E+00   3.208178E+00   3.260884E+00   3.311662E+00   3.341145E+00   3.346502E+00   3.325119E+00   3.288346E+00   3.258693E+00   3.245265E+00   3.259941E+00   3.298068E+00   3.354385E+00   3.410025E+00   3.442209E+00   3.444138E+00   3.415085E+00   3.382180E+00   3.375029E+00   3.390247E+00   3.444941E+00   3.502892E+00   3.535741E+00   3.519299E+00   3.462213E+00   3.369877E+00   3.284741E+00   3.228232E+00   3.243387E+00   3.322935E+00   3.491509E+00   3.742266E+00   4.035028E+00   4.339553E+00   4.637327E+00   4.932739E+00   5.240927E+00   5.558178E+00   5.847960E+00   6.060824E+00   6.144400E+00   6.064011E+00   5.841059E+00   5.502538E+00   5.103184E+00   4.675835E+00   4.269970E+00   3.886229E+00   3.560227E+00   3.278117E+00   3.028402E+00   2.793750E+00   2.601032E+00   2.452527E+00   2.352237E+00   2.309253E+00   2.314257E+00   2.382700E+00   2.499907E+00   2.669217E+00   2.872185E+00   3.123000E+00   3.385402E+00   3.627747E+00   3.815269E+00   3.944340E+00   4.012342E+00   4.036227E+00   4.032476E+00   3.990987E+00   3.961759E+00   3.942086E+00   3.916109E+00   3.894578E+00   3.877109E+00   3.879807E+00   3.915415E+00   3.980408E+00   4.089860E+00   4.230687E+00   4.383169E+00   4.502196E+00   4.582654E+00   4.595088E+00   4.576574E+00   4.528134E+00   4.443157E+00   4.361066E+00   4.255263E+00   4.139325E+00
   4.118041E+00   4.210537E+00   4.262342E+00   4.249581E+00   4.207983E+00   4.124555E+00   4.064514E+00   3.996652E+00   3.908467E+00   3.778813E+00   3.617976E+00   3.458243E+00   3.314677E+00   3.196100E+00   3.115182E+00   3.067754E+00   3.035849E+00   3.024229E+00   3.037475E+00   3.091161E+00   3.170761E+00   3.276566E+00   3.403976E+00   3.532408E+00   3.672816E+00   3.816898E+00   3.980410E+00   4.159838E+00   4.383574E+00   4.596334E+00   4.813593E+00   5.005540E+00   5.181013E+00   5.288748E+00   5.335286E+00   5.284596E+00   5.155641E+00   4.924667E+00   4.611389E+00   4.239355E+00   3.877720E+00   3.554614E+00   3.295582E+00   3.101718E+00   2.960447E+00   2.877940E+00   2.847690E+00   2.877492E+00   2.958567E+00   3.079180E+00   3.239143E+00   3.414645E+00   3.596347E+00   3.737262E+00   3.843542E+00   3.910710E+00   3.974054E+00   4.058689E+00   4.188111E+00   4.376879E+00   4.612258E+00   4.859500E+00   5.051734E+00   5.165039E+00   5.162248E+00   5.044410E+00   4.843098E+00   4.610494E+00   4.366140E+00   4.127763E+00   3.916865E+00   3.720147E+00   3.534868E+00   3.381902E+00   3.238185E+00   3.137897E+00   3.067842E+00   3.019845E+00   2.986308E+00   2.955461E+00   2.920686E+00   2.867142E+00   2.804549E+00   2.742160E+00   2.669441E+00   2.616787E+00   2.576139E+00   2.566012E+00   2.601396E+00   2.681961E+00   2.829025E+00   3.010824E+00   3.223176E+00   3.450144E+00   3.653660E+00   3.813068E+00   3.943202E+00   4.020578E+00   4.009223E+00   3.952497E+00   3.841830E+00   3.726594E+00   3.610378E+00   3.506671E+00   3.426129E+00   3.373714E+00   3.343221E+00   3.344397E+00   3.354921E+00   3.380543E+00   3.414095E+00   3.450230E+00   3.493108E+00   3.513899E+00   3.511961E+00   3.486811E+00   3.433476E+00   3.358968E+00   3.270779E+00   3.190291E+00   3.132985E+00   3.100498E+00   3.091444E+00   3.086348E+00   3.077432E+00   3.064429E+00   3.046227E+00   3.046553E+00   3.069861E+00   3.129067E+00   3.219831E+00   3.329808E+00   3.413334E+00   3.460816E+00   3.454125E+00   3.415950E+00   3.354796E+00   3.319937E+00   3.334148E+00   3.425429E+00   3.583899E+00   3.818676E+00   4.091683E+00   4.376939E+00   4.643536E+00   4.915956E+00   5.190054E+00   5.482803E+00   5.740278E+00   5.937941E+00   6.021985E+00   5.970286E+00   5.784215E+00   5.507473E+00   5.159037E+00   4.774471E+00   4.399108E+00   4.037424E+00   3.708047E+00   3.425438E+00   3.169449E+00   2.936456E+00   2.729784E+00   2.576978E+00   2.473054E+00   2.423284E+00   2.431077E+00   2.485768E+00   2.602238E+00   2.752444E+00   2.949325E+00   3.173422E+00   3.409650E+00   3.627497E+00   3.804744E+00   3.901901E+00   3.956213E+00   3.969627E+00   3.954428E+00   3.918943E+00   3.894373E+00   3.874196E+00   3.863811E+00   3.837838E+00   3.819693E+00   3.804168E+00   3.817544E+00   3.859026E+00   3.935573E+00   4.039319E+00   4.146653E+00   4.245221E+00   4.296527E+00   4.321673E+00   4.321555E+00   4.298814E+00   4.258763E+00   4.217514E+00   4.165610E+00   4.084914E+00