# LPF package for  MODFLOW-2005, generated by Flopy.
         0    -1E+30         0  
         0
         0
   1.000000E+00
         0
         0
INTERNAL               1 (200E15.6) -1 #hk layer 1                    
   3.962799E+00   3.935284E+00   3.904643E+00   3.862639E+00   3.833899E+00   3.813477E+00   3.802124E+00   3.789383E+00   3.787766E+00   3.761501E+00   3.732059E+00   3.689024E+00   3.641780E+00   3.585362E+00   3.527759E+00   3.488848E+00   3.471334E+00   3.475648E+00   3.487903E+00   3.515004E+00   3.555517E+00   3.610240E+00   3.676261E+00   3.769760E+00   3.856437E+00   3.942614E+00   4.023981E+00   4.102551E+00   4.173298E+00   4.228792E+00   4.263379E+00   4.278054E+00   4.262363E+00   4.208639E+00   4.144017E+00   4.060943E+00   3.983569E+00   3.902419E+00   3.837260E+00   3.780361E+00   3.734321E+00   3.704985E+00   3.677622E+00   3.641428E+00   3.612112E+00   3.596179E+00   3.597814E+00   3.596376E+00   3.596992E+00   3.587622E+00   3.565838E+00   3.538434E+00   3.502574E+00   3.460893E+00   3.425160E+00   3.380420E+00   3.348110E+00   3.330682E+00   3.342651E+00   3.384840E+00   3.437951E+00   3.508716E+00   3.589054E+00   3.667603E+00   3.724960E+00   3.774222E+00   3.803801E+00   3.824035E+00   3.825990E+00   3.806056E+00   3.768636E+00   3.724259E+00   3.683896E+00   3.658849E+00   3.654753E+00   3.647192E+00   3.655460E+00   3.651766E+00   3.644580E+00   3.635166E+00   3.635774E+00   3.623759E+00   3.611421E+00   3.599468E+00   3.583063E+00   3.572201E+00   3.569963E+00   3.582266E+00   3.598221E+00   3.649012E+00   3.714884E+00   3.790893E+00   3.863266E+00   3.918302E+00   3.938028E+00   3.934248E+00   3.911753E+00   3.868126E+00   3.820161E+00   3.755208E+00   3.688779E+00   3.614341E+00   3.538807E+00   3.483520E+00   3.436798E+00   3.398610E+00   3.375440E+00   3.354345E+00   3.352403E+00   3.340885E+00   3.328617E+00   3.308926E+00   3.299340E+00   3.305018E+00   3.313860E+00   3.344011E+00   3.403418E+00   3.481925E+00   3.577441E+00   3.681914E+00   3.773152E+00   3.873399E+00   3.963034E+00   4.047353E+00   4.127064E+00   4.192563E+00   4.268154E+00   4.325102E+00   4.356707E+00   4.372980E+00   4.360151E+00   4.335495E+00   4.308276E+00   4.267480E+00   4.212851E+00   4.168928E+00   4.110925E+00   4.072201E+00   4.050314E+00   4.051454E+00   4.074154E+00   4.106722E+00   4.158709E+00   4.213230E+00   4.279428E+00   4.349018E+00   4.431303E+00   4.525099E+00   4.590637E+00   4.616874E+00   4.595798E+00   4.545315E+00   4.457871E+00   4.370958E+00   4.269287E+00   4.164049E+00   4.064073E+00   3.962161E+00   3.866559E+00   3.760774E+00   3.673585E+00   3.573081E+00   3.493824E+00   3.439998E+00   3.401852E+00   3.385069E+00   3.389105E+00   3.415170E+00   3.461360E+00   3.544869E+00   3.647728E+00   3.756835E+00   3.870603E+00   3.969628E+00   4.043521E+00   4.094797E+00   4.129408E+00   4.160828E+00   4.187342E+00   4.202398E+00   4.222222E+00   4.238317E+00   4.251710E+00   4.250402E+00   4.238910E+00   4.202199E+00   4.153109E+00   4.089968E+00   4.032113E+00   3.993693E+00   3.975636E+00   3.977475E+00   3.985398E+00   4.000429E+00   4.005262E+00   4.010300E+00   4.009967E+00   3.991193E+00   3.983180E+00   3.979279E+00
   3.931107E+00   3.887763E+00   3.829841E+00   3.762666E+00   3.694613E+00   3.655587E+00   3.623591E+00   3.599816E+00   3.585552E+00   3.569134E+00   3.518255E+00   3.459005E+00   3.366331E+00   3.277699E+00   3.189112E+00   3.124418E+00   3.088196E+00   3.089541E+00   3.108961E+00   3.146021E+00   3.207005E+00   3.294867E+00   3.408906E+00   3.546175E+00   3.701282E+00   3.869364E+00   4.044141E+00   4.212819E+00   4.363761E+00   4.476666E+00   4.542570E+00   4.578321E+00   4.539242E+00   4.449797E+00   4.313683E+00   4.166806E+00   4.016789E+00   3.866351E+00   3.721149E+00   3.617148E+00   3.531996E+00   3.477495E+00   3.426544E+00   3.378069E+00   3.326835E+00   3.299312E+00   3.291315E+00   3.285436E+00   3.282757E+00   3.269380E+00   3.241856E+00   3.198014E+00   3.151844E+00   3.091521E+00   3.019130E+00   2.952958E+00   2.904700E+00   2.881355E+00   2.896896E+00   2.955914E+00   3.048378E+00   3.177549E+00   3.316571E+00   3.439508E+00   3.541023E+00   3.620341E+00   3.659903E+00   3.670978E+00   3.654598E+00   3.607836E+00   3.536864E+00   3.463102E+00   3.394884E+00   3.346647E+00   3.318281E+00   3.305763E+00   3.306793E+00   3.317291E+00   3.330778E+00   3.344689E+00   3.346206E+00   3.339702E+00   3.320326E+00   3.291592E+00   3.255582E+00   3.224138E+00   3.214290E+00   3.223251E+00   3.256927E+00   3.326729E+00   3.449557E+00   3.571600E+00   3.708073E+00   3.808155E+00   3.860869E+00   3.865885E+00   3.817474E+00   3.748160E+00   3.658908E+00   3.553156E+00   3.436150E+00   3.309326E+00   3.182817E+00   3.082076E+00   3.002786E+00   2.939605E+00   2.899079E+00   2.875648E+00   2.857928E+00   2.842704E+00   2.823201E+00   2.810590E+00   2.814584E+00   2.824081E+00   2.855826E+00   2.913314E+00   2.997034E+00   3.108452E+00   3.251808E+00   3.408288E+00   3.571045E+00   3.748604E+00   3.920036E+00   4.086997E+00   4.236365E+00   4.381824E+00   4.511689E+00   4.608099E+00   4.648665E+00   4.659110E+00   4.639126E+00   4.593603E+00   4.519039E+00   4.415535E+00   4.309406E+00   4.212334E+00   4.139918E+00   4.086524E+00   4.073598E+00   4.088446E+00   4.138811E+00   4.222653E+00   4.297319E+00   4.406929E+00   4.525917E+00   4.681085E+00   4.854767E+00   5.038081E+00   5.182795E+00   5.230563E+00   5.195553E+00   5.072752E+00   4.905289E+00   4.710507E+00   4.497466E+00   4.284722E+00   4.077274E+00   3.883594E+00   3.689515E+00   3.513164E+00   3.339127E+00   3.194935E+00   3.067050E+00   2.986150E+00   2.935693E+00   2.910844E+00   2.919075E+00   2.971617E+00   3.068291E+00   3.207972E+00   3.373981E+00   3.558224E+00   3.746571E+00   3.909733E+00   4.045702E+00   4.142345E+00   4.213347E+00   4.270751E+00   4.313116E+00   4.347977E+00   4.379248E+00   4.414613E+00   4.424931E+00   4.420140E+00   4.381995E+00   4.328681E+00   4.247791E+00   4.153100E+00   4.068516E+00   4.005074E+00   4.004181E+00   4.019069E+00   4.045077E+00   4.059797E+00   4.058187E+00   4.054937E+00   4.036963E+00   4.011809E+00   3.986729E+00   3.982322E+00
   3.911467E+00   3.831553E+00   3.749179E+00   3.665403E+00   3.598491E+00   3.527573E+00   3.482124E+00   3.448223E+00   3.426403E+00   3.389869E+00   3.342309E+00   3.261592E+00   3.174630E+00   3.070571E+00   2.974639E+00   2.897312E+00   2.853326E+00   2.846018E+00   2.866256E+00   2.912529E+00   2.976508E+00   3.079183E+00   3.215749E+00   3.387503E+00   3.576909E+00   3.793211E+00   4.037787E+00   4.276370E+00   4.495182E+00   4.657182E+00   4.767996E+00   4.801100E+00   4.762486E+00   4.652367E+00   4.500289E+00   4.292719E+00   4.082121E+00   3.863005E+00   3.679838E+00   3.528461E+00   3.415830E+00   3.325113E+00   3.258921E+00   3.194293E+00   3.126707E+00   3.063457E+00   3.038826E+00   3.013773E+00   3.011811E+00   3.010768E+00   3.004217E+00   2.979032E+00   2.952933E+00   2.897630E+00   2.834560E+00   2.772516E+00   2.717746E+00   2.691812E+00   2.709697E+00   2.779128E+00   2.893646E+00   3.038534E+00   3.196870E+00   3.347727E+00   3.465185E+00   3.536640E+00   3.565560E+00   3.554863E+00   3.505462E+00   3.429735E+00   3.323791E+00   3.222679E+00   3.129776E+00   3.063030E+00   3.021075E+00   3.000802E+00   3.008708E+00   3.033507E+00   3.074635E+00   3.111146E+00   3.131106E+00   3.131506E+00   3.116690E+00   3.074223E+00   3.034392E+00   2.993380E+00   2.965035E+00   2.957805E+00   2.984603E+00   3.066820E+00   3.196398E+00   3.362212E+00   3.523895E+00   3.667895E+00   3.738806E+00   3.748450E+00   3.707743E+00   3.629722E+00   3.533742E+00   3.403418E+00   3.255839E+00   3.101888E+00   2.953146E+00   2.817364E+00   2.714518E+00   2.633941E+00   2.576836E+00   2.543796E+00   2.526020E+00   2.512416E+00   2.502495E+00   2.501280E+00   2.520600E+00   2.552511E+00   2.595374E+00   2.671974E+00   2.769140E+00   2.892505E+00   3.056036E+00   3.236955E+00   3.429826E+00   3.652830E+00   3.878017E+00   4.097802E+00   4.299413E+00   4.472279E+00   4.633162E+00   4.738538E+00   4.800467E+00   4.799451E+00   4.754794E+00   4.666575E+00   4.541433E+00   4.402922E+00   4.262260E+00   4.144787E+00   4.046835E+00   4.001921E+00   3.997550E+00   4.042734E+00   4.127921E+00   4.226848E+00   4.359332E+00   4.514979E+00   4.710830E+00   4.934651E+00   5.204906E+00   5.455269E+00   5.643304E+00   5.717277E+00   5.675226E+00   5.512686E+00   5.265734E+00   4.981361E+00   4.677481E+00   4.377751E+00   4.084586E+00   3.800971E+00   3.528950E+00   3.281189E+00   3.065465E+00   2.875295E+00   2.743033E+00   2.651949E+00   2.600132E+00   2.586585E+00   2.616644E+00   2.692624E+00   2.815937E+00   2.983704E+00   3.191477E+00   3.408127E+00   3.631727E+00   3.835866E+00   4.016086E+00   4.145898E+00   4.243530E+00   4.309334E+00   4.361372E+00   4.399943E+00   4.422941E+00   4.430428E+00   4.437342E+00   4.415579E+00   4.374114E+00   4.306468E+00   4.231771E+00   4.167496E+00   4.107776E+00   4.083433E+00   4.095803E+00   4.140767E+00   4.191563E+00   4.206540E+00   4.196493E+00   4.158289E+00   4.116695E+00   4.076115E+00   4.039306E+00   4.009642E+00
   3.896415E+00   3.808118E+00   3.706726E+00   3.617197E+00   3.544132E+00   3.483409E+00   3.426415E+00   3.386302E+00   3.348519E+00   3.304943E+00   3.237651E+00   3.162071E+00   3.060431E+00   2.958663E+00   2.861096E+00   2.788233E+00   2.738093E+00   2.722189E+00   2.738962E+00   2.785643E+00   2.847069E+00   2.944266E+00   3.081245E+00   3.263811E+00   3.476298E+00   3.718078E+00   3.983434E+00   4.264684E+00   4.516463E+00   4.716255E+00   4.850258E+00   4.915583E+00   4.877586E+00   4.796679E+00   4.627024E+00   4.407482E+00   4.159265E+00   3.904167E+00   3.671007E+00   3.491919E+00   3.347394E+00   3.228645E+00   3.124298E+00   3.028015E+00   2.943433E+00   2.872732E+00   2.826815E+00   2.791093E+00   2.786272E+00   2.799778E+00   2.824622E+00   2.847611E+00   2.863891E+00   2.863137E+00   2.829894E+00   2.784564E+00   2.741384E+00   2.725894E+00   2.748683E+00   2.821379E+00   2.941018E+00   3.095378E+00   3.255993E+00   3.401230E+00   3.504326E+00   3.550957E+00   3.540805E+00   3.482950E+00   3.396757E+00   3.283512E+00   3.157802E+00   3.024785E+00   2.914403E+00   2.824900E+00   2.781256E+00   2.772080E+00   2.795285E+00   2.835774E+00   2.895577E+00   2.947437E+00   2.992139E+00   3.008162E+00   2.995915E+00   2.955202E+00   2.894250E+00   2.837045E+00   2.786806E+00   2.764395E+00   2.783979E+00   2.851916E+00   2.984861E+00   3.145462E+00   3.331534E+00   3.491969E+00   3.600824E+00   3.640400E+00   3.616438E+00   3.548577E+00   3.453632E+00   3.323582E+00   3.169070E+00   2.995755E+00   2.832839E+00   2.694870E+00   2.574119E+00   2.488064E+00   2.434195E+00   2.393789E+00   2.381194E+00   2.367170E+00   2.370774E+00   2.385327E+00   2.416041E+00   2.466281E+00   2.530078E+00   2.616349E+00   2.714513E+00   2.835641E+00   2.981974E+00   3.155023E+00   3.350226E+00   3.571313E+00   3.813360E+00   4.059119E+00   4.280649E+00   4.464149E+00   4.608761E+00   4.703961E+00   4.741457E+00   4.728835E+00   4.662075E+00   4.551498E+00   4.399968E+00   4.236036E+00   4.082296E+00   3.944575E+00   3.856399E+00   3.807247E+00   3.816222E+00   3.887549E+00   4.005031E+00   4.149844E+00   4.329006E+00   4.553386E+00   4.811184E+00   5.114309E+00   5.422074E+00   5.737152E+00   5.978684E+00   6.084729E+00   6.043855E+00   5.855798E+00   5.551184E+00   5.188567E+00   4.810336E+00   4.451997E+00   4.092699E+00   3.748630E+00   3.425087E+00   3.138511E+00   2.889343E+00   2.700603E+00   2.550717E+00   2.445155E+00   2.391537E+00   2.380281E+00   2.412782E+00   2.497559E+00   2.634050E+00   2.831190E+00   3.049944E+00   3.291910E+00   3.531906E+00   3.766510E+00   3.958092E+00   4.113169E+00   4.209408E+00   4.281659E+00   4.319254E+00   4.339420E+00   4.337408E+00   4.334918E+00   4.302998E+00   4.280874E+00   4.231435E+00   4.189440E+00   4.155226E+00   4.129735E+00   4.138796E+00   4.185289E+00   4.258949E+00   4.341071E+00   4.394195E+00   4.415830E+00   4.386292E+00   4.323538E+00   4.237219E+00   4.156197E+00   4.092081E+00   4.036590E+00
   3.901797E+00   3.809905E+00   3.713157E+00   3.630351E+00   3.558673E+00   3.493139E+00   3.438244E+00   3.386792E+00   3.350250E+00   3.288930E+00   3.216571E+00   3.121765E+00   3.023642E+00   2.922865E+00   2.831516E+00   2.753359E+00   2.701953E+00   2.678988E+00   2.700036E+00   2.742792E+00   2.817849E+00   2.926692E+00   3.056361E+00   3.230318E+00   3.438346E+00   3.675380E+00   3.932449E+00   4.187445E+00   4.435067E+00   4.641576E+00   4.791918E+00   4.871994E+00   4.908326E+00   4.864180E+00   4.746241E+00   4.553630E+00   4.323493E+00   4.029842E+00   3.758720E+00   3.508361E+00   3.313744E+00   3.156340E+00   3.022433E+00   2.903534E+00   2.799508E+00   2.721246E+00   2.671054E+00   2.638944E+00   2.636559E+00   2.670198E+00   2.738573E+00   2.822783E+00   2.909875E+00   2.960370E+00   2.975935E+00   2.960080E+00   2.945268E+00   2.944634E+00   2.982694E+00   3.057332E+00   3.184125E+00   3.341056E+00   3.498349E+00   3.626734E+00   3.702597E+00   3.704829E+00   3.642878E+00   3.534484E+00   3.393682E+00   3.237289E+00   3.073713E+00   2.923725E+00   2.788003E+00   2.690896E+00   2.641364E+00   2.635899E+00   2.664960E+00   2.729053E+00   2.799771E+00   2.865994E+00   2.917981E+00   2.931182E+00   2.906052E+00   2.851624E+00   2.781741E+00   2.705001E+00   2.636732E+00   2.599324E+00   2.599258E+00   2.653885E+00   2.769794E+00   2.935767E+00   3.119234E+00   3.298679E+00   3.442134E+00   3.518171E+00   3.534116E+00   3.508495E+00   3.444584E+00   3.340617E+00   3.192591E+00   3.012948E+00   2.849379E+00   2.706692E+00   2.596266E+00   2.518915E+00   2.464490E+00   2.428522E+00   2.404855E+00   2.407079E+00   2.422428E+00   2.448775E+00   2.486894E+00   2.553474E+00   2.621996E+00   2.698356E+00   2.789910E+00   2.883325E+00   3.000648E+00   3.141224E+00   3.320019E+00   3.524191E+00   3.753732E+00   3.991826E+00   4.188062E+00   4.355696E+00   4.461444E+00   4.499747E+00   4.505601E+00   4.484963E+00   4.418964E+00   4.309700E+00   4.154603E+00   4.001673E+00   3.840448E+00   3.701828E+00   3.601055E+00   3.565748E+00   3.584887E+00   3.674521E+00   3.811478E+00   4.004044E+00   4.232872E+00   4.505508E+00   4.816858E+00   5.151769E+00   5.489521E+00   5.837052E+00   6.113145E+00   6.268610E+00   6.251074E+00   6.081723E+00   5.758984E+00   5.355288E+00   4.927815E+00   4.504647E+00   4.098993E+00   3.720351E+00   3.368619E+00   3.066355E+00   2.811128E+00   2.601095E+00   2.445517E+00   2.332363E+00   2.270683E+00   2.254903E+00   2.288268E+00   2.376240E+00   2.523361E+00   2.715399E+00   2.944852E+00   3.190825E+00   3.443232E+00   3.688941E+00   3.913308E+00   4.079884E+00   4.192698E+00   4.246570E+00   4.279339E+00   4.268322E+00   4.247806E+00   4.206579E+00   4.172590E+00   4.135162E+00   4.108006E+00   4.081295E+00   4.088566E+00   4.122844E+00   4.193714E+00   4.301193E+00   4.423926E+00   4.541458E+00   4.623320E+00   4.634178E+00   4.598204E+00   4.522820E+00   4.414749E+00   4.300344E+00   4.189229E+00   4.089364E+00
   3.927743E+00   3.860561E+00   3.788538E+00   3.723087E+00   3.643584E+00   3.574922E+00   3.507019E+00   3.459988E+00   3.412448E+00   3.347547E+00   3.262869E+00   3.164160E+00   3.052939E+00   2.956287E+00   2.864978E+00   2.791525E+00   2.733490E+00   2.716420E+00   2.734892E+00   2.798133E+00   2.881831E+00   2.997802E+00   3.128004E+00   3.293025E+00   3.480337E+00   3.681101E+00   3.901289E+00   4.137864E+00   4.358128E+00   4.558891E+00   4.715773E+00   4.836745E+00   4.928449E+00   4.954070E+00   4.886110E+00   4.748721E+00   4.528591E+00   4.226566E+00   3.907865E+00   3.603863E+00   3.350696E+00   3.144327E+00   2.970577E+00   2.836852E+00   2.728099E+00   2.642608E+00   2.593651E+00   2.572432E+00   2.599635E+00   2.666879E+00   2.775995E+00   2.913236E+00   3.051366E+00   3.165774E+00   3.227786E+00   3.263610E+00   3.280946E+00   3.300879E+00   3.350689E+00   3.445360E+00   3.576238E+00   3.731969E+00   3.893986E+00   4.002255E+00   4.042230E+00   3.995033E+00   3.872371E+00   3.710631E+00   3.517521E+00   3.312950E+00   3.124975E+00   2.946034E+00   2.802965E+00   2.694110E+00   2.638580E+00   2.633831E+00   2.659202E+00   2.716409E+00   2.789589E+00   2.847249E+00   2.889451E+00   2.890209E+00   2.852678E+00   2.789816E+00   2.706631E+00   2.613791E+00   2.526688E+00   2.465466E+00   2.452446E+00   2.497985E+00   2.601852E+00   2.760935E+00   2.955945E+00   3.156346E+00   3.335188E+00   3.460748E+00   3.530559E+00   3.550505E+00   3.522248E+00   3.436715E+00   3.299510E+00   3.143888E+00   2.984454E+00   2.847742E+00   2.743816E+00   2.675497E+00   2.636213E+00   2.606279E+00   2.594965E+00   2.592456E+00   2.609574E+00   2.639638E+00   2.691589E+00   2.751032E+00   2.813237E+00   2.870894E+00   2.921552E+00   2.981179E+00   3.060747E+00   3.169570E+00   3.313608E+00   3.483127E+00   3.679574E+00   3.872087E+00   4.036582E+00   4.143165E+00   4.185527E+00   4.176336E+00   4.163471E+00   4.129910E+00   4.092005E+00   4.017781E+00   3.917374E+00   3.791259E+00   3.648091E+00   3.509077E+00   3.404783E+00   3.358110E+00   3.388771E+00   3.479697E+00   3.632210E+00   3.854046E+00   4.107776E+00   4.400805E+00   4.727040E+00   5.081529E+00   5.440090E+00   5.796626E+00   6.091995E+00   6.274612E+00   6.310157E+00   6.157926E+00   5.832127E+00   5.429726E+00   4.998492E+00   4.558718E+00   4.133227E+00   3.731920E+00   3.385428E+00   3.080794E+00   2.821312E+00   2.606497E+00   2.437203E+00   2.311323E+00   2.234240E+00   2.206408E+00   2.235681E+00   2.315014E+00   2.455945E+00   2.644075E+00   2.873396E+00   3.127944E+00   3.389101E+00   3.644315E+00   3.861035E+00   4.029828E+00   4.142591E+00   4.209016E+00   4.220074E+00   4.215889E+00   4.167865E+00   4.131124E+00   4.083790E+00   4.053408E+00   4.027374E+00   4.034300E+00   4.065760E+00   4.130438E+00   4.237788E+00   4.388656E+00   4.553225E+00   4.687940E+00   4.764633E+00   4.776611E+00   4.729585E+00   4.654897E+00   4.559285E+00   4.432658E+00   4.291589E+00   4.145120E+00
   3.979202E+00   3.956024E+00   3.916006E+00   3.846045E+00   3.787129E+00   3.702151E+00   3.640276E+00   3.585119E+00   3.538440E+00   3.469718E+00   3.374497E+00   3.260600E+00   3.136936E+00   3.032505E+00   2.942920E+00   2.871581E+00   2.819611E+00   2.790862E+00   2.820150E+00   2.883625E+00   2.984566E+00   3.110556E+00   3.237170E+00   3.391637E+00   3.556922E+00   3.740101E+00   3.941340E+00   4.130544E+00   4.330741E+00   4.528564E+00   4.721707E+00   4.875680E+00   4.993330E+00   5.067446E+00   5.073936E+00   4.979692E+00   4.778409E+00   4.475033E+00   4.123430E+00   3.773195E+00   3.475855E+00   3.218980E+00   3.015961E+00   2.854878E+00   2.731347E+00   2.650491E+00   2.602017E+00   2.606214E+00   2.658696E+00   2.753467E+00   2.901296E+00   3.082983E+00   3.264049E+00   3.424696E+00   3.534992E+00   3.600027E+00   3.640105E+00   3.670097E+00   3.741398E+00   3.854534E+00   4.002729E+00   4.173252E+00   4.335425E+00   4.434100E+00   4.437206E+00   4.350841E+00   4.188282E+00   3.979433E+00   3.749128E+00   3.519967E+00   3.295338E+00   3.104236E+00   2.943594E+00   2.832505E+00   2.759730E+00   2.730186E+00   2.735182E+00   2.771704E+00   2.823713E+00   2.866598E+00   2.880142E+00   2.862488E+00   2.808208E+00   2.741548E+00   2.650987E+00   2.550542E+00   2.459833E+00   2.393775E+00   2.382042E+00   2.432274E+00   2.542608E+00   2.698980E+00   2.900487E+00   3.110280E+00   3.316144E+00   3.494047E+00   3.620607E+00   3.673902E+00   3.670395E+00   3.599362E+00   3.483726E+00   3.343813E+00   3.200163E+00   3.071938E+00   2.982001E+00   2.926095E+00   2.895895E+00   2.879573E+00   2.874135E+00   2.873414E+00   2.885643E+00   2.914651E+00   2.965624E+00   3.022815E+00   3.066620E+00   3.108701E+00   3.122422E+00   3.139233E+00   3.170738E+00   3.221222E+00   3.308602E+00   3.421010E+00   3.553410E+00   3.683128E+00   3.774522E+00   3.814258E+00   3.802594E+00   3.771471E+00   3.744099E+00   3.736785E+00   3.735554E+00   3.736103E+00   3.699165E+00   3.620140E+00   3.521160E+00   3.398120E+00   3.291660E+00   3.229496E+00   3.249540E+00   3.343355E+00   3.512604E+00   3.753535E+00   4.030252E+00   4.332534E+00   4.645468E+00   4.978269E+00   5.325352E+00   5.669928E+00   5.977816E+00   6.189682E+00   6.239414E+00   6.110015E+00   5.834399E+00   5.472400E+00   5.047096E+00   4.617220E+00   4.185162E+00   3.797979E+00   3.451226E+00   3.153201E+00   2.899449E+00   2.673033E+00   2.492274E+00   2.357132E+00   2.272577E+00   2.236419E+00   2.258058E+00   2.327202E+00   2.455520E+00   2.632047E+00   2.854036E+00   3.111079E+00   3.385903E+00   3.642991E+00   3.848609E+00   3.999729E+00   4.091992E+00   4.131439E+00   4.142435E+00   4.116029E+00   4.074439E+00   4.032372E+00   3.995295E+00   3.960215E+00   3.949832E+00   3.955354E+00   4.000868E+00   4.076329E+00   4.203266E+00   4.372558E+00   4.537498E+00   4.675988E+00   4.759511E+00   4.768582E+00   4.728397E+00   4.656170E+00   4.567063E+00   4.446701E+00   4.311393E+00   4.159067E+00
   4.043881E+00   4.084126E+00   4.071377E+00   4.037219E+00   3.960837E+00   3.885007E+00   3.813527E+00   3.759391E+00   3.692918E+00   3.604004E+00   3.479968E+00   3.350074E+00   3.221253E+00   3.114035E+00   3.027594E+00   2.968435E+00   2.913587E+00   2.900910E+00   2.924352E+00   2.989100E+00   3.088229E+00   3.214505E+00   3.342158E+00   3.478771E+00   3.627371E+00   3.797515E+00   3.965826E+00   4.147759E+00   4.341806E+00   4.551698E+00   4.756151E+00   4.954424E+00   5.104825E+00   5.217136E+00   5.243355E+00   5.179624E+00   5.008611E+00   4.735881E+00   4.380194E+00   4.003480E+00   3.651461E+00   3.363497E+00   3.126494E+00   2.944898E+00   2.819469E+00   2.735702E+00   2.706939E+00   2.716685E+00   2.787133E+00   2.908831E+00   3.080200E+00   3.272061E+00   3.457825E+00   3.628038E+00   3.747639E+00   3.825850E+00   3.874066E+00   3.940701E+00   4.035750E+00   4.175261E+00   4.366265E+00   4.565586E+00   4.748563E+00   4.855565E+00   4.847110E+00   4.723567E+00   4.529824E+00   4.300983E+00   4.056592E+00   3.805320E+00   3.577577E+00   3.378359E+00   3.201479E+00   3.065339E+00   2.967693E+00   2.905415E+00   2.885722E+00   2.880264E+00   2.895869E+00   2.904527E+00   2.899632E+00   2.858809E+00   2.798287E+00   2.723873E+00   2.642697E+00   2.554952E+00   2.475582E+00   2.430516E+00   2.431283E+00   2.496859E+00   2.613503E+00   2.781918E+00   2.975814E+00   3.193262E+00   3.412086E+00   3.607929E+00   3.763235E+00   3.837820E+00   3.842732E+00   3.784557E+00   3.672549E+00   3.546760E+00   3.415884E+00   3.298721E+00   3.212511E+00   3.164705E+00   3.148990E+00   3.143839E+00   3.148168E+00   3.160121E+00   3.179143E+00   3.207830E+00   3.260512E+00   3.311279E+00   3.340768E+00   3.346144E+00   3.324796E+00   3.288071E+00   3.258472E+00   3.245099E+00   3.259825E+00   3.297997E+00   3.354354E+00   3.410022E+00   3.442221E+00   3.444147E+00   3.415075E+00   3.382134E+00   3.374942E+00   3.390118E+00   3.444772E+00   3.502687E+00   3.535498E+00   3.519018E+00   3.461894E+00   3.369520E+00   3.284337E+00   3.227770E+00   3.242860E+00   3.322337E+00   3.490826E+00   3.741480E+00   4.034132E+00   4.338550E+00   4.636226E+00   4.931556E+00   5.239673E+00   5.556865E+00   5.846614E+00   6.059486E+00   6.143116E+00   6.062830E+00   5.840019E+00   5.501657E+00   5.102462E+00   4.675263E+00   4.269526E+00   3.885888E+00   3.559960E+00   3.277902E+00   3.028224E+00   2.793594E+00   2.600889E+00   2.452394E+00   2.352109E+00   2.309124E+00   2.314122E+00   2.382556E+00   2.499748E+00   2.669037E+00   2.871978E+00   3.122757E+00   3.385108E+00   3.627390E+00   3.814838E+00   3.943823E+00   4.011724E+00   4.035500E+00   4.031642E+00   3.990054E+00   3.960730E+00   3.940962E+00   3.914911E+00   3.893329E+00   3.875830E+00   3.878523E+00   3.914143E+00   3.979171E+00   4.088670E+00   4.229558E+00   4.382125E+00   4.501272E+00   4.581873E+00   4.594463E+00   4.576103E+00   4.527797E+00   4.442937E+00   4.360929E+00   4.255181E+00   4.139286E+00
   4.118120E+00   4.210695E+00   4.262578E+00   4.249886E+00   4.208355E+00   4.124987E+00   4.065008E+00   3.997205E+00   3.909064E+00   3.779427E+00   3.618573E+00   3.458803E+00   3.315188E+00   3.196554E+00   3.115570E+00   3.068066E+00   3.036074E+00   3.024357E+00   3.037505E+00   3.091093E+00   3.170601E+00   3.276335E+00   3.403693E+00   3.532101E+00   3.672512E+00   3.816624E+00   3.980186E+00   4.159678E+00   4.383494E+00   4.596340E+00   4.813686E+00   5.005700E+00   5.181209E+00   5.288942E+00   5.335441E+00   5.284669E+00   5.155604E+00   4.924498E+00   4.611084E+00   4.238935E+00   3.877206E+00   3.554022E+00   3.294928E+00   3.101010E+00   2.959694E+00   2.877139E+00   2.846839E+00   2.876584E+00   2.957593E+00   3.078139E+00   3.238036E+00   3.413489E+00   3.595160E+00   3.736074E+00   3.842378E+00   3.909590E+00   3.972981E+00   4.057656E+00   4.187106E+00   4.375889E+00   4.611277E+00   4.858529E+00   5.050782E+00   5.164126E+00   5.161389E+00   5.043621E+00   4.842383E+00   4.609848E+00   4.365573E+00   4.127274E+00   3.916449E+00   3.719794E+00   3.534571E+00   3.381654E+00   3.237980E+00   3.137721E+00   3.067684E+00   3.019698E+00   2.986171E+00   2.955335E+00   2.920571E+00   2.867033E+00   2.804440E+00   2.742049E+00   2.669329E+00   2.616674E+00   2.576029E+00   2.565905E+00   2.601291E+00   2.681863E+00   2.828932E+00   3.010741E+00   3.223094E+00   3.450058E+00   3.653565E+00   3.812957E+00   3.943064E+00   4.020405E+00   4.009020E+00   3.952268E+00   3.841574E+00   3.726319E+00   3.610088E+00   3.506368E+00   3.425818E+00   3.373397E+00   3.342892E+00   3.344052E+00   3.354565E+00   3.380173E+00   3.413714E+00   3.449842E+00   3.492719E+00   3.513522E+00   3.511607E+00   3.486483E+00   3.433185E+00   3.358722E+00   3.270586E+00   3.190151E+00   3.132891E+00   3.100446E+00   3.091424E+00   3.086349E+00   3.077442E+00   3.064432E+00   3.046206E+00   3.046503E+00   3.069780E+00   3.128955E+00   3.219690E+00   3.329643E+00   3.413139E+00   3.460590E+00   3.453860E+00   3.415640E+00   3.354432E+00   3.319509E+00   3.333650E+00   3.424847E+00   3.583220E+00   3.817883E+00   4.090768E+00   4.375905E+00   4.642396E+00   4.914725E+00   5.188745E+00   5.481426E+00   5.738859E+00   5.936515E+00   6.020605E+00   5.969003E+00   5.783066E+00   5.506478E+00   5.158195E+00   4.773777E+00   4.398538E+00   4.036951E+00   3.707644E+00   3.425085E+00   3.169134E+00   2.936167E+00   2.729511E+00   2.576716E+00   2.472797E+00   2.423024E+00   2.430807E+00   2.485484E+00   2.601932E+00   2.752109E+00   2.948951E+00   3.172999E+00   3.409169E+00   3.626951E+00   3.804122E+00   3.901199E+00   3.955419E+00   3.968741E+00   3.953446E+00   3.917877E+00   3.893220E+00   3.872965E+00   3.862517E+00   3.836510E+00   3.818356E+00   3.802846E+00   3.816254E+00   3.857787E+00   3.934396E+00   4.038212E+00   4.145636E+00   4.244319E+00   4.295763E+00   4.321058E+00   4.321084E+00   4.298472E+00   4.258528E+00   4.217361E+00   4.165518E+00   4.084871E+00