# LPF package for  MODFLOW-2005, generated by Flopy.
         0    -1E+30         0  
         0
         0
   1.000000E+00
         0
         0
INTERNAL               1 (200E15.6) -1 #hk layer 1                    
   2.972818E+00   2.969218E+00   2.964586E+00   2.958131E+00   2.953162E+00   2.949217E+00   2.946429E+00   2.943669E+00   2.943516E+00   2.940424E+00   2.937745E+00   2.933334E+00   2.928439E+00   2.922618E+00   2.915911E+00   2.911190E+00   2.908723E+00   2.909169E+00   2.910652E+00   2.914224E+00   2.919302E+00   2.926010E+00   2.933820E+00   2.944381E+00   2.952993E+00   2.961394E+00   2.969205E+00   2.977379E+00   2.984958E+00   2.991475E+00   2.995701E+00   2.997908E+00   2.997169E+00   2.991869E+00   2.985767E+00   2.977523E+00   2.970381E+00   2.962915E+00   2.957361E+00   2.952410E+00   2.947913E+00   2.944163E+00   2.939750E+00   2.933094E+00   2.926570E+00   2.920962E+00   2.916252E+00   2.910580E+00   2.905635E+00   2.900041E+00   2.893219E+00   2.886232E+00   2.879684E+00   2.872657E+00   2.867460E+00   2.861670E+00   2.858165E+00   2.857080E+00   2.861271E+00   2.869787E+00   2.879479E+00   2.891145E+00   2.903769E+00   2.915187E+00   2.923391E+00   2.930134E+00   2.934286E+00   2.938335E+00   2.940617E+00   2.940890E+00   2.938995E+00   2.937376E+00   2.937147E+00   2.938720E+00   2.941787E+00   2.942885E+00   2.944634E+00   2.943380E+00   2.939765E+00   2.935682E+00   2.932563E+00   2.927954E+00   2.924370E+00   2.921804E+00   2.919604E+00   2.918609E+00   2.919595E+00   2.922924E+00   2.926970E+00   2.935008E+00   2.944345E+00   2.953536E+00   2.961886E+00   2.967027E+00   2.967225E+00   2.963519E+00   2.957714E+00   2.950250E+00   2.943239E+00   2.934824E+00   2.926713E+00   2.918222E+00   2.910301E+00   2.906065E+00   2.902937E+00   2.900997E+00   2.901264E+00   2.901204E+00   2.903835E+00   2.904766E+00   2.905409E+00   2.904860E+00   2.905518E+00   2.908470E+00   2.911311E+00   2.917239E+00   2.927285E+00   2.940005E+00   2.954397E+00   2.969182E+00   2.981299E+00   2.993591E+00   3.003334E+00   3.011456E+00   3.018491E+00   3.023249E+00   3.029388E+00   3.032978E+00   3.033419E+00   3.032756E+00   3.029425E+00   3.025352E+00   3.021085E+00   3.015427E+00   3.008703E+00   3.004104E+00   2.997791E+00   2.994241E+00   2.993186E+00   2.995820E+00   3.000234E+00   3.005260E+00   3.011487E+00   3.016905E+00   3.022959E+00   3.028920E+00   3.035389E+00   3.043095E+00   3.047451E+00   3.047165E+00   3.040943E+00   3.031085E+00   3.017545E+00   3.005372E+00   2.992765E+00   2.980694E+00   2.970236E+00   2.959710E+00   2.949667E+00   2.938097E+00   2.928073E+00   2.914797E+00   2.903042E+00   2.893831E+00   2.885915E+00   2.880502E+00   2.876984E+00   2.875524E+00   2.877117E+00   2.883546E+00   2.893726E+00   2.905658E+00   2.919053E+00   2.932571E+00   2.943820E+00   2.953228E+00   2.961037E+00   2.969186E+00   2.977787E+00   2.985229E+00   2.992784E+00   2.999337E+00   3.004699E+00   3.007452E+00   3.008009E+00   3.004343E+00   2.998079E+00   2.989730E+00   2.982387E+00   2.977668E+00   2.976158E+00   2.977484E+00   2.979302E+00   2.981520E+00   2.981913E+00   2.981973E+00   2.981326E+00   2.977834E+00   2.976410E+00   2.975423E+00
   2.969739E+00   2.964454E+00   2.956903E+00   2.946341E+00   2.934924E+00   2.926759E+00   2.919774E+00   2.914668E+00   2.912605E+00   2.911172E+00   2.906099E+00   2.900362E+00   2.889808E+00   2.879342E+00   2.867792E+00   2.858219E+00   2.852376E+00   2.852458E+00   2.854733E+00   2.859764E+00   2.867705E+00   2.879370E+00   2.893967E+00   2.910048E+00   2.927251E+00   2.944993E+00   2.963547E+00   2.981008E+00   2.997076E+00   3.009004E+00   3.016560E+00   3.021678E+00   3.018596E+00   3.010059E+00   2.996410E+00   2.982234E+00   2.968248E+00   2.953889E+00   2.939467E+00   2.929393E+00   2.920548E+00   2.914278E+00   2.906360E+00   2.896801E+00   2.884716E+00   2.874171E+00   2.864983E+00   2.854999E+00   2.845356E+00   2.834552E+00   2.822761E+00   2.810527E+00   2.799779E+00   2.787905E+00   2.775207E+00   2.765133E+00   2.758612E+00   2.757637E+00   2.763888E+00   2.778013E+00   2.796781E+00   2.820276E+00   2.844393E+00   2.864537E+00   2.881147E+00   2.893570E+00   2.900627E+00   2.904368E+00   2.906426E+00   2.905277E+00   2.902579E+00   2.900201E+00   2.899220E+00   2.899612E+00   2.901221E+00   2.902653E+00   2.903428E+00   2.902436E+00   2.900326E+00   2.896696E+00   2.891515E+00   2.885694E+00   2.879253E+00   2.873113E+00   2.867404E+00   2.864369E+00   2.865603E+00   2.870249E+00   2.878394E+00   2.891123E+00   2.909946E+00   2.925776E+00   2.941695E+00   2.951205E+00   2.953027E+00   2.948345E+00   2.937389E+00   2.925334E+00   2.911935E+00   2.898039E+00   2.884265E+00   2.869784E+00   2.855647E+00   2.846179E+00   2.840281E+00   2.836594E+00   2.836126E+00   2.838018E+00   2.839991E+00   2.842554E+00   2.843363E+00   2.845458E+00   2.850170E+00   2.855073E+00   2.863058E+00   2.875179E+00   2.891225E+00   2.911027E+00   2.934615E+00   2.959007E+00   2.982211E+00   3.005010E+00   3.024982E+00   3.042162E+00   3.055274E+00   3.066896E+00   3.076012E+00   3.081516E+00   3.080371E+00   3.076908E+00   3.071464E+00   3.063818E+00   3.053646E+00   3.040693E+00   3.028072E+00   3.017494E+00   3.010699E+00   3.006974E+00   3.008921E+00   3.014089E+00   3.022996E+00   3.034478E+00   3.043338E+00   3.053596E+00   3.062882E+00   3.074707E+00   3.087750E+00   3.100775E+00   3.108989E+00   3.106483E+00   3.095368E+00   3.075460E+00   3.051804E+00   3.027431E+00   3.002897E+00   2.979453E+00   2.957861E+00   2.937796E+00   2.916559E+00   2.896119E+00   2.873883E+00   2.853605E+00   2.833728E+00   2.818709E+00   2.806251E+00   2.796463E+00   2.790321E+00   2.790315E+00   2.796065E+00   2.808267E+00   2.825205E+00   2.845597E+00   2.868485E+00   2.890541E+00   2.910791E+00   2.928037E+00   2.943733E+00   2.959498E+00   2.974773E+00   2.989244E+00   3.002681E+00   3.015326E+00   3.023054E+00   3.027148E+00   3.025792E+00   3.020466E+00   3.010525E+00   2.998085E+00   2.986593E+00   2.978378E+00   2.978817E+00   2.981782E+00   2.986007E+00   2.988216E+00   2.987933E+00   2.987137E+00   2.984207E+00   2.980205E+00   2.975765E+00   2.975193E+00
   2.969146E+00   2.960730E+00   2.950517E+00   2.938137E+00   2.926186E+00   2.912285E+00   2.901923E+00   2.894591E+00   2.891001E+00   2.886812E+00   2.882176E+00   2.873332E+00   2.863190E+00   2.849793E+00   2.836104E+00   2.824178E+00   2.816590E+00   2.814587E+00   2.816691E+00   2.822672E+00   2.831086E+00   2.845259E+00   2.863373E+00   2.885015E+00   2.906718E+00   2.930744E+00   2.957461E+00   2.983273E+00   3.005774E+00   3.022216E+00   3.033582E+00   3.037712E+00   3.034190E+00   3.023253E+00   3.008321E+00   2.987144E+00   2.966205E+00   2.943907E+00   2.925420E+00   2.910143E+00   2.898493E+00   2.887596E+00   2.878284E+00   2.866545E+00   2.851093E+00   2.833187E+00   2.819135E+00   2.803670E+00   2.791473E+00   2.779921E+00   2.768394E+00   2.755727E+00   2.745152E+00   2.731155E+00   2.718152E+00   2.706870E+00   2.698343E+00   2.696373E+00   2.703801E+00   2.721492E+00   2.746657E+00   2.776296E+00   2.806369E+00   2.833876E+00   2.855062E+00   2.869530E+00   2.877711E+00   2.881485E+00   2.880674E+00   2.877986E+00   2.872085E+00   2.867445E+00   2.863240E+00   2.861178E+00   2.860284E+00   2.859458E+00   2.859648E+00   2.859688E+00   2.859996E+00   2.858569E+00   2.854414E+00   2.848926E+00   2.842593E+00   2.833928E+00   2.828320E+00   2.824969E+00   2.824907E+00   2.828678E+00   2.836983E+00   2.853160E+00   2.873775E+00   2.897338E+00   2.916632E+00   2.931111E+00   2.933671E+00   2.927853E+00   2.916534E+00   2.902344E+00   2.888208E+00   2.871849E+00   2.854267E+00   2.837533E+00   2.821571E+00   2.807724E+00   2.798904E+00   2.792842E+00   2.790324E+00   2.791642E+00   2.794658E+00   2.797653E+00   2.800554E+00   2.804563E+00   2.812926E+00   2.823019E+00   2.834615E+00   2.851378E+00   2.871357E+00   2.894879E+00   2.923898E+00   2.953641E+00   2.982598E+00   3.012802E+00   3.040529E+00   3.064140E+00   3.082879E+00   3.095603E+00   3.106482E+00   3.111136E+00   3.111428E+00   3.105855E+00   3.096376E+00   3.083564E+00   3.067850E+00   3.051984E+00   3.036275E+00   3.023690E+00   3.014175E+00   3.012601E+00   3.016056E+00   3.025801E+00   3.038945E+00   3.052122E+00   3.066619E+00   3.080793E+00   3.096530E+00   3.112419E+00   3.131171E+00   3.145661E+00   3.152363E+00   3.147494E+00   3.132239E+00   3.106649E+00   3.075161E+00   3.042675E+00   3.010069E+00   2.978695E+00   2.948187E+00   2.917934E+00   2.886771E+00   2.856406E+00   2.827335E+00   2.798228E+00   2.775786E+00   2.757668E+00   2.743703E+00   2.733775E+00   2.729650E+00   2.731734E+00   2.740027E+00   2.755365E+00   2.777000E+00   2.801387E+00   2.829067E+00   2.856851E+00   2.884272E+00   2.907483E+00   2.929148E+00   2.949032E+00   2.969121E+00   2.988312E+00   3.004206E+00   3.016489E+00   3.026170E+00   3.029133E+00   3.026856E+00   3.018764E+00   3.008065E+00   2.998404E+00   2.988930E+00   2.984343E+00   2.984973E+00   2.990467E+00   2.996986E+00   2.998734E+00   2.997416E+00   2.992846E+00   2.988175E+00   2.983729E+00   2.980169E+00   2.977473E+00
   2.970091E+00   2.962472E+00   2.950129E+00   2.937292E+00   2.924876E+00   2.912566E+00   2.900287E+00   2.892251E+00   2.885979E+00   2.880426E+00   2.873073E+00   2.864295E+00   2.851133E+00   2.836743E+00   2.821866E+00   2.809477E+00   2.799999E+00   2.795614E+00   2.796827E+00   2.802553E+00   2.811145E+00   2.825009E+00   2.843643E+00   2.867197E+00   2.892879E+00   2.920259E+00   2.949926E+00   2.979939E+00   3.006010E+00   3.025480E+00   3.038353E+00   3.043576E+00   3.038510E+00   3.029599E+00   3.011924E+00   2.989165E+00   2.963131E+00   2.935989E+00   2.910981E+00   2.892596E+00   2.877508E+00   2.863323E+00   2.848812E+00   2.832860E+00   2.815197E+00   2.795963E+00   2.778028E+00   2.759505E+00   2.745289E+00   2.734135E+00   2.725648E+00   2.718349E+00   2.711551E+00   2.703962E+00   2.693470E+00   2.683353E+00   2.675739E+00   2.675103E+00   2.684082E+00   2.702637E+00   2.730132E+00   2.763173E+00   2.796618E+00   2.825968E+00   2.849039E+00   2.863247E+00   2.869627E+00   2.869390E+00   2.865894E+00   2.858849E+00   2.850566E+00   2.840689E+00   2.832784E+00   2.825693E+00   2.822437E+00   2.820913E+00   2.821577E+00   2.822642E+00   2.825066E+00   2.825333E+00   2.825310E+00   2.821934E+00   2.816328E+00   2.809012E+00   2.801496E+00   2.797130E+00   2.794956E+00   2.797765E+00   2.806659E+00   2.821228E+00   2.843990E+00   2.866880E+00   2.890055E+00   2.906083E+00   2.912593E+00   2.909807E+00   2.900432E+00   2.887305E+00   2.874316E+00   2.859120E+00   2.842333E+00   2.823092E+00   2.806502E+00   2.793559E+00   2.782601E+00   2.776140E+00   2.773996E+00   2.773198E+00   2.776767E+00   2.778670E+00   2.783679E+00   2.790207E+00   2.800289E+00   2.814279E+00   2.830306E+00   2.849519E+00   2.870613E+00   2.894902E+00   2.922062E+00   2.951838E+00   2.982330E+00   3.013438E+00   3.044217E+00   3.072354E+00   3.094338E+00   3.109870E+00   3.119175E+00   3.122489E+00   3.119696E+00   3.112873E+00   3.101192E+00   3.086251E+00   3.067805E+00   3.049230E+00   3.032048E+00   3.017377E+00   3.009108E+00   3.006378E+00   3.011261E+00   3.024629E+00   3.042371E+00   3.060362E+00   3.079587E+00   3.100465E+00   3.121352E+00   3.142999E+00   3.161278E+00   3.176840E+00   3.183471E+00   3.177691E+00   3.160025E+00   3.131451E+00   3.095127E+00   3.055207E+00   3.016283E+00   2.979665E+00   2.942939E+00   2.905049E+00   2.867303E+00   2.830829E+00   2.795638E+00   2.766406E+00   2.739712E+00   2.717886E+00   2.702754E+00   2.692139E+00   2.687425E+00   2.690049E+00   2.700439E+00   2.720391E+00   2.743534E+00   2.771061E+00   2.800870E+00   2.832997E+00   2.863182E+00   2.891769E+00   2.915771E+00   2.939292E+00   2.960337E+00   2.979404E+00   2.994613E+00   3.007607E+00   3.013269E+00   3.015495E+00   3.010961E+00   3.004217E+00   2.996361E+00   2.988734E+00   2.985289E+00   2.987114E+00   2.992747E+00   3.000292E+00   3.005287E+00   3.007196E+00   3.004335E+00   2.998289E+00   2.990264E+00   2.983676E+00   2.979804E+00   2.977376E+00
   2.973170E+00   2.967023E+00   2.957156E+00   2.946181E+00   2.934307E+00   2.922099E+00   2.911139E+00   2.901972E+00   2.895955E+00   2.887881E+00   2.879406E+00   2.867124E+00   2.853760E+00   2.838235E+00   2.823103E+00   2.808802E+00   2.797482E+00   2.791248E+00   2.793120E+00   2.798559E+00   2.809844E+00   2.825898E+00   2.843496E+00   2.866292E+00   2.891622E+00   2.918758E+00   2.946343E+00   2.973618E+00   2.998853E+00   3.018911E+00   3.031856E+00   3.037067E+00   3.037776E+00   3.030328E+00   3.015854E+00   2.994352E+00   2.969736E+00   2.937141E+00   2.907168E+00   2.879524E+00   2.858020E+00   2.839492E+00   2.821735E+00   2.803081E+00   2.782793E+00   2.763043E+00   2.744815E+00   2.726992E+00   2.712560E+00   2.704030E+00   2.701770E+00   2.702637E+00   2.704967E+00   2.702687E+00   2.697547E+00   2.690390E+00   2.686567E+00   2.688347E+00   2.699471E+00   2.718708E+00   2.747828E+00   2.782536E+00   2.816983E+00   2.846916E+00   2.869320E+00   2.881617E+00   2.884916E+00   2.881355E+00   2.872128E+00   2.859633E+00   2.844786E+00   2.830308E+00   2.815580E+00   2.804250E+00   2.797638E+00   2.794706E+00   2.794304E+00   2.797527E+00   2.800879E+00   2.803579E+00   2.805202E+00   2.802658E+00   2.796381E+00   2.788215E+00   2.781072E+00   2.774944E+00   2.771018E+00   2.772074E+00   2.777926E+00   2.790612E+00   2.810427E+00   2.834814E+00   2.857704E+00   2.876190E+00   2.887576E+00   2.890111E+00   2.886204E+00   2.880067E+00   2.872164E+00   2.862594E+00   2.848576E+00   2.830657E+00   2.815141E+00   2.802481E+00   2.794344E+00   2.789966E+00   2.787192E+00   2.785770E+00   2.785137E+00   2.789409E+00   2.795757E+00   2.803864E+00   2.814024E+00   2.830022E+00   2.846325E+00   2.863738E+00   2.883602E+00   2.902565E+00   2.925096E+00   2.950022E+00   2.980062E+00   3.010406E+00   3.042082E+00   3.071407E+00   3.092846E+00   3.109116E+00   3.115827E+00   3.113999E+00   3.108965E+00   3.102105E+00   3.090750E+00   3.075683E+00   3.056556E+00   3.038774E+00   3.020341E+00   3.004568E+00   2.993125E+00   2.990544E+00   2.995788E+00   3.010974E+00   3.031126E+00   3.055713E+00   3.081086E+00   3.106752E+00   3.132441E+00   3.155564E+00   3.173771E+00   3.189292E+00   3.195965E+00   3.192226E+00   3.175048E+00   3.147677E+00   3.109641E+00   3.067408E+00   3.024091E+00   2.981627E+00   2.939362E+00   2.898096E+00   2.856665E+00   2.817693E+00   2.781870E+00   2.749038E+00   2.721583E+00   2.698021E+00   2.680457E+00   2.668216E+00   2.662723E+00   2.665678E+00   2.677953E+00   2.697536E+00   2.722496E+00   2.751129E+00   2.782972E+00   2.817613E+00   2.852310E+00   2.883466E+00   2.911019E+00   2.934005E+00   2.956147E+00   2.972058E+00   2.985676E+00   2.994470E+00   2.999692E+00   2.999475E+00   2.995963E+00   2.989414E+00   2.984388E+00   2.980866E+00   2.980931E+00   2.985893E+00   2.993520E+00   3.002096E+00   3.008070E+00   3.008427E+00   3.006070E+00   3.001493E+00   2.994277E+00   2.987936E+00   2.982830E+00   2.979736E+00
   2.978689E+00   2.977639E+00   2.972826E+00   2.965278E+00   2.953007E+00   2.941084E+00   2.929248E+00   2.921571E+00   2.914806E+00   2.906576E+00   2.896059E+00   2.882505E+00   2.865945E+00   2.850601E+00   2.834588E+00   2.819865E+00   2.806820E+00   2.801146E+00   2.802053E+00   2.811615E+00   2.824870E+00   2.842687E+00   2.861049E+00   2.882484E+00   2.905045E+00   2.926625E+00   2.949963E+00   2.974443E+00   2.996330E+00   3.014250E+00   3.026911E+00   3.033759E+00   3.038199E+00   3.035722E+00   3.024677E+00   3.007549E+00   2.982429E+00   2.948796E+00   2.912889E+00   2.877996E+00   2.848963E+00   2.823795E+00   2.800834E+00   2.781003E+00   2.760967E+00   2.740641E+00   2.723470E+00   2.708646E+00   2.700512E+00   2.698124E+00   2.701781E+00   2.709323E+00   2.717257E+00   2.722119E+00   2.721428E+00   2.720514E+00   2.720748E+00   2.725015E+00   2.737691E+00   2.759292E+00   2.789316E+00   2.824047E+00   2.860572E+00   2.890092E+00   2.911568E+00   2.921633E+00   2.921173E+00   2.913851E+00   2.899470E+00   2.880765E+00   2.861813E+00   2.841521E+00   2.823627E+00   2.808005E+00   2.797509E+00   2.792506E+00   2.789810E+00   2.790797E+00   2.793996E+00   2.795084E+00   2.795276E+00   2.791758E+00   2.785286E+00   2.778277E+00   2.770427E+00   2.762748E+00   2.755479E+00   2.751411E+00   2.753518E+00   2.763492E+00   2.781049E+00   2.804184E+00   2.829364E+00   2.851072E+00   2.867701E+00   2.876993E+00   2.881942E+00   2.882975E+00   2.881893E+00   2.876032E+00   2.865041E+00   2.852050E+00   2.838984E+00   2.829074E+00   2.822505E+00   2.819057E+00   2.818387E+00   2.817052E+00   2.816941E+00   2.817614E+00   2.822376E+00   2.829638E+00   2.841745E+00   2.855432E+00   2.869670E+00   2.882930E+00   2.894965E+00   2.908435E+00   2.925145E+00   2.946707E+00   2.972937E+00   3.001718E+00   3.032523E+00   3.060150E+00   3.081650E+00   3.093421E+00   3.094852E+00   3.089279E+00   3.083669E+00   3.076141E+00   3.068913E+00   3.057682E+00   3.044476E+00   3.028658E+00   3.010087E+00   2.992076E+00   2.977495E+00   2.971512E+00   2.976941E+00   2.991297E+00   3.012478E+00   3.041056E+00   3.069407E+00   3.097157E+00   3.123836E+00   3.148508E+00   3.168101E+00   3.183665E+00   3.192036E+00   3.190518E+00   3.177340E+00   3.151348E+00   3.113102E+00   3.071673E+00   3.028575E+00   2.984409E+00   2.940658E+00   2.896826E+00   2.856926E+00   2.819138E+00   2.784156E+00   2.751850E+00   2.722809E+00   2.696836E+00   2.676450E+00   2.661874E+00   2.655984E+00   2.657140E+00   2.669082E+00   2.687968E+00   2.713533E+00   2.743646E+00   2.776936E+00   2.812162E+00   2.846247E+00   2.877688E+00   2.905601E+00   2.930274E+00   2.949457E+00   2.966739E+00   2.976531E+00   2.984754E+00   2.987885E+00   2.987841E+00   2.983502E+00   2.979320E+00   2.975188E+00   2.971935E+00   2.972954E+00   2.979152E+00   2.987465E+00   2.994157E+00   2.997860E+00   2.998620E+00   2.996579E+00   2.994467E+00   2.992838E+00   2.989825E+00   2.986046E+00   2.982218E+00
   2.986447E+00   2.992705E+00   2.993095E+00   2.985677E+00   2.977461E+00   2.964302E+00   2.954498E+00   2.946314E+00   2.940279E+00   2.931798E+00   2.919060E+00   2.902759E+00   2.884006E+00   2.866912E+00   2.851022E+00   2.836555E+00   2.824295E+00   2.815655E+00   2.818638E+00   2.827973E+00   2.843941E+00   2.863899E+00   2.882092E+00   2.902833E+00   2.922424E+00   2.942814E+00   2.963758E+00   2.982450E+00   3.001030E+00   3.018578E+00   3.033726E+00   3.043295E+00   3.047580E+00   3.048239E+00   3.042486E+00   3.028132E+00   3.003994E+00   2.970087E+00   2.930169E+00   2.889979E+00   2.855123E+00   2.823901E+00   2.797079E+00   2.773493E+00   2.750974E+00   2.732352E+00   2.716083E+00   2.707722E+00   2.705638E+00   2.708665E+00   2.718010E+00   2.731382E+00   2.743590E+00   2.753135E+00   2.757948E+00   2.760455E+00   2.762920E+00   2.768551E+00   2.783522E+00   2.807285E+00   2.838267E+00   2.874745E+00   2.911213E+00   2.941772E+00   2.961904E+00   2.970841E+00   2.969108E+00   2.959212E+00   2.942517E+00   2.922010E+00   2.898031E+00   2.875201E+00   2.853596E+00   2.836168E+00   2.821472E+00   2.810441E+00   2.803348E+00   2.800471E+00   2.799884E+00   2.798887E+00   2.795227E+00   2.789503E+00   2.782043E+00   2.775692E+00   2.767425E+00   2.757112E+00   2.747650E+00   2.740440E+00   2.740658E+00   2.749912E+00   2.767236E+00   2.788146E+00   2.813314E+00   2.836349E+00   2.857137E+00   2.874712E+00   2.887993E+00   2.895549E+00   2.898721E+00   2.896164E+00   2.889022E+00   2.879374E+00   2.868939E+00   2.860062E+00   2.855086E+00   2.853243E+00   2.852647E+00   2.852380E+00   2.852067E+00   2.851770E+00   2.853983E+00   2.860024E+00   2.870855E+00   2.883280E+00   2.893591E+00   2.904346E+00   2.911013E+00   2.918305E+00   2.928457E+00   2.942644E+00   2.963168E+00   2.986728E+00   3.012689E+00   3.036491E+00   3.052797E+00   3.059098E+00   3.057398E+00   3.051069E+00   3.044158E+00   3.040046E+00   3.037238E+00   3.035133E+00   3.027953E+00   3.015150E+00   2.999827E+00   2.980481E+00   2.962540E+00   2.951597E+00   2.953557E+00   2.966732E+00   2.989473E+00   3.019612E+00   3.050842E+00   3.079913E+00   3.104714E+00   3.127306E+00   3.147084E+00   3.163363E+00   3.174573E+00   3.176609E+00   3.166012E+00   3.142852E+00   3.110765E+00   3.073378E+00   3.031196E+00   2.987871E+00   2.942620E+00   2.900756E+00   2.862035E+00   2.827132E+00   2.795646E+00   2.763994E+00   2.735311E+00   2.709245E+00   2.688331E+00   2.672771E+00   2.666223E+00   2.666421E+00   2.676097E+00   2.693823E+00   2.718379E+00   2.749340E+00   2.783380E+00   2.817528E+00   2.848229E+00   2.876855E+00   2.900640E+00   2.920225E+00   2.937724E+00   2.950684E+00   2.959752E+00   2.966441E+00   2.969528E+00   2.969163E+00   2.966544E+00   2.962097E+00   2.958061E+00   2.954898E+00   2.956145E+00   2.962159E+00   2.967218E+00   2.972260E+00   2.975528E+00   2.975958E+00   2.975797E+00   2.976194E+00   2.978029E+00   2.979313E+00   2.980329E+00   2.979650E+00
   2.995103E+00   3.009608E+00   3.014245E+00   3.012698E+00   3.002921E+00   2.991817E+00   2.981188E+00   2.973844E+00   2.965569E+00   2.953767E+00   2.936176E+00   2.916687E+00   2.896393E+00   2.878274E+00   2.863098E+00   2.851027E+00   2.838645E+00   2.833241E+00   2.834960E+00   2.844612E+00   2.860302E+00   2.880955E+00   2.900526E+00   2.919990E+00   2.938816E+00   2.957783E+00   2.974770E+00   2.992362E+00   3.010527E+00   3.028498E+00   3.044616E+00   3.057728E+00   3.065219E+00   3.068143E+00   3.063642E+00   3.050637E+00   3.028986E+00   2.997368E+00   2.957137E+00   2.913184E+00   2.871325E+00   2.835483E+00   2.804049E+00   2.776592E+00   2.755166E+00   2.737061E+00   2.726016E+00   2.719694E+00   2.722055E+00   2.730586E+00   2.744319E+00   2.758629E+00   2.771049E+00   2.781797E+00   2.788121E+00   2.792123E+00   2.796426E+00   2.806790E+00   2.824744E+00   2.851177E+00   2.886627E+00   2.925131E+00   2.963978E+00   2.995709E+00   3.015982E+00   3.022419E+00   3.019674E+00   3.009446E+00   2.992464E+00   2.970322E+00   2.946800E+00   2.923659E+00   2.899487E+00   2.878137E+00   2.859271E+00   2.843264E+00   2.832948E+00   2.823727E+00   2.817932E+00   2.812284E+00   2.806713E+00   2.798333E+00   2.790364E+00   2.782395E+00   2.774025E+00   2.763799E+00   2.753544E+00   2.747386E+00   2.747501E+00   2.757202E+00   2.773211E+00   2.793981E+00   2.815384E+00   2.838289E+00   2.860926E+00   2.881519E+00   2.899722E+00   2.910691E+00   2.915816E+00   2.915094E+00   2.908356E+00   2.900348E+00   2.890755E+00   2.881732E+00   2.875457E+00   2.872993E+00   2.873313E+00   2.873455E+00   2.874432E+00   2.875863E+00   2.879007E+00   2.884673E+00   2.895343E+00   2.906432E+00   2.914813E+00   2.920124E+00   2.922839E+00   2.923759E+00   2.927148E+00   2.934193E+00   2.946462E+00   2.962357E+00   2.981110E+00   2.998569E+00   3.010355E+00   3.014822E+00   3.012560E+00   3.007732E+00   3.004323E+00   3.002558E+00   3.006492E+00   3.010324E+00   3.010020E+00   3.002152E+00   2.988945E+00   2.970561E+00   2.953174E+00   2.940577E+00   2.939910E+00   2.948781E+00   2.969801E+00   2.999966E+00   3.032300E+00   3.061363E+00   3.084764E+00   3.104383E+00   3.121804E+00   3.137873E+00   3.149437E+00   3.154414E+00   3.149503E+00   3.132996E+00   3.106952E+00   3.072186E+00   3.032172E+00   2.988309E+00   2.945987E+00   2.904967E+00   2.869593E+00   2.839163E+00   2.810853E+00   2.781212E+00   2.753576E+00   2.728269E+00   2.706412E+00   2.691324E+00   2.682553E+00   2.683879E+00   2.693063E+00   2.709815E+00   2.731385E+00   2.760541E+00   2.792290E+00   2.822313E+00   2.848739E+00   2.870728E+00   2.888586E+00   2.903461E+00   2.916425E+00   2.925292E+00   2.934659E+00   2.943126E+00   2.947495E+00   2.948525E+00   2.945991E+00   2.941211E+00   2.936601E+00   2.931825E+00   2.931199E+00   2.933258E+00   2.937934E+00   2.941133E+00   2.944693E+00   2.945539E+00   2.948066E+00   2.951113E+00   2.954337E+00   2.961432E+00   2.967809E+00   2.974266E+00
   3.003846E+00   3.024266E+00   3.037256E+00   3.039001E+00   3.034685E+00   3.023411E+00   3.015144E+00   3.006529E+00   2.994723E+00   2.976808E+00   2.953593E+00   2.929512E+00   2.906533E+00   2.886086E+00   2.871887E+00   2.861702E+00   2.853933E+00   2.849283E+00   2.849899E+00   2.858060E+00   2.871499E+00   2.890490E+00   2.912336E+00   2.931631E+00   2.950208E+00   2.966872E+00   2.983620E+00   3.002043E+00   3.023286E+00   3.041465E+00   3.057593E+00   3.070100E+00   3.079912E+00   3.082722E+00   3.078915E+00   3.066525E+00   3.047327E+00   3.019900E+00   2.983579E+00   2.940825E+00   2.897301E+00   2.857085E+00   2.821836E+00   2.793377E+00   2.769690E+00   2.752994E+00   2.742838E+00   2.740769E+00   2.745724E+00   2.755318E+00   2.768372E+00   2.781827E+00   2.795256E+00   2.803612E+00   2.809519E+00   2.813423E+00   2.820576E+00   2.834503E+00   2.856756E+00   2.888874E+00   2.928305E+00   2.971322E+00   3.009708E+00   3.041222E+00   3.060890E+00   3.067769E+00   3.064325E+00   3.054351E+00   3.038267E+00   3.018328E+00   2.998369E+00   2.976035E+00   2.951996E+00   2.928967E+00   2.904379E+00   2.884051E+00   2.867129E+00   2.852616E+00   2.839858E+00   2.828866E+00   2.820373E+00   2.810571E+00   2.801702E+00   2.794474E+00   2.785564E+00   2.778889E+00   2.772692E+00   2.770027E+00   2.773417E+00   2.782485E+00   2.800286E+00   2.820067E+00   2.841977E+00   2.864705E+00   2.884076E+00   2.899628E+00   2.914298E+00   2.926132E+00   2.928986E+00   2.928607E+00   2.921246E+00   2.913123E+00   2.903534E+00   2.893850E+00   2.885727E+00   2.880498E+00   2.877525E+00   2.878286E+00   2.879842E+00   2.884250E+00   2.890805E+00   2.898563E+00   2.907842E+00   2.914957E+00   2.919733E+00   2.922342E+00   2.922133E+00   2.919958E+00   2.916466E+00   2.915604E+00   2.918783E+00   2.926565E+00   2.937505E+00   2.948032E+00   2.955735E+00   2.959761E+00   2.960036E+00   2.960633E+00   2.962213E+00   2.966796E+00   2.974621E+00   2.984296E+00   2.988335E+00   2.986619E+00   2.976768E+00   2.963196E+00   2.947092E+00   2.936089E+00   2.933464E+00   2.942061E+00   2.959684E+00   2.986143E+00   3.014868E+00   3.041428E+00   3.061918E+00   3.080644E+00   3.096793E+00   3.113194E+00   3.124765E+00   3.130756E+00   3.127726E+00   3.115385E+00   3.093137E+00   3.064266E+00   3.029157E+00   2.990194E+00   2.951779E+00   2.913732E+00   2.879518E+00   2.850820E+00   2.823840E+00   2.797272E+00   2.770224E+00   2.747451E+00   2.728267E+00   2.714498E+00   2.708142E+00   2.708853E+00   2.718744E+00   2.732776E+00   2.753009E+00   2.776861E+00   2.803046E+00   2.828146E+00   2.849524E+00   2.864291E+00   2.876405E+00   2.886855E+00   2.895306E+00   2.901990E+00   2.909809E+00   2.917495E+00   2.924079E+00   2.925183E+00   2.923586E+00   2.918355E+00   2.912400E+00   2.907224E+00   2.904314E+00   2.904611E+00   2.906007E+00   2.909258E+00   2.910198E+00   2.913123E+00   2.918255E+00   2.924512E+00   2.932416E+00   2.943353E+00   2.955974E+00   2.966609E+00