# LPF package for  MODFLOW-2005, generated by Flopy.
         0    -1E+30         0  
         0
         0
   1.000000E+00
         0
         0
INTERNAL               1 (200E15.6) -1 #hk layer 1                    
   3.962785E+00   3.935249E+00   3.904582E+00   3.862552E+00   3.833790E+00   3.813350E+00   3.801983E+00   3.789229E+00   3.787603E+00   3.761331E+00   3.731882E+00   3.688841E+00   3.641592E+00   3.585166E+00   3.527552E+00   3.488630E+00   3.471104E+00   3.475410E+00   3.487661E+00   3.514763E+00   3.555284E+00   3.610021E+00   3.676061E+00   3.769583E+00   3.856287E+00   3.942495E+00   4.023898E+00   4.102513E+00   4.173307E+00   4.228862E+00   4.263509E+00   4.278243E+00   4.262600E+00   4.208911E+00   4.144315E+00   4.061257E+00   3.983891E+00   3.902739E+00   3.837573E+00   3.780656E+00   3.734597E+00   3.705238E+00   3.677849E+00   3.641627E+00   3.612285E+00   3.596329E+00   3.597939E+00   3.596476E+00   3.597063E+00   3.587664E+00   3.565852E+00   3.538427E+00   3.502543E+00   3.460836E+00   3.425078E+00   3.380316E+00   3.347994E+00   3.330560E+00   3.342531E+00   3.384728E+00   3.437852E+00   3.508635E+00   3.588993E+00   3.667561E+00   3.724931E+00   3.774199E+00   3.803778E+00   3.824011E+00   3.825964E+00   3.806023E+00   3.768592E+00   3.724201E+00   3.683821E+00   3.658759E+00   3.654655E+00   3.647096E+00   3.655370E+00   3.651688E+00   3.644516E+00   3.635119E+00   3.635743E+00   3.623743E+00   3.611418E+00   3.599474E+00   3.583075E+00   3.572215E+00   3.569978E+00   3.582284E+00   3.598238E+00   3.649025E+00   3.714895E+00   3.790907E+00   3.863292E+00   3.918345E+00   3.938083E+00   3.934311E+00   3.911822E+00   3.868193E+00   3.820228E+00   3.755274E+00   3.688838E+00   3.614389E+00   3.538828E+00   3.483514E+00   3.436760E+00   3.398545E+00   3.375350E+00   3.354233E+00   3.352271E+00   3.340735E+00   3.328453E+00   3.308754E+00   3.299165E+00   3.304841E+00   3.313683E+00   3.343837E+00   3.403252E+00   3.481773E+00   3.577306E+00   3.681804E+00   3.773064E+00   3.873333E+00   3.962983E+00   4.047319E+00   4.127045E+00   4.192557E+00   4.268162E+00   4.325123E+00   4.356738E+00   4.373012E+00   4.360185E+00   4.335536E+00   4.308332E+00   4.267554E+00   4.212943E+00   4.169035E+00   4.111043E+00   4.072331E+00   4.050454E+00   4.051606E+00   4.074319E+00   4.106895E+00   4.158895E+00   4.213425E+00   4.279637E+00   4.349238E+00   4.431542E+00   4.525358E+00   4.590914E+00   4.617154E+00   4.596071E+00   4.545563E+00   4.458083E+00   4.371138E+00   4.269447E+00   4.164199E+00   4.064218E+00   3.962297E+00   3.866679E+00   3.760873E+00   3.673662E+00   3.573144E+00   3.493877E+00   3.440049E+00   3.401906E+00   3.385132E+00   3.389182E+00   3.415266E+00   3.461474E+00   3.545000E+00   3.647875E+00   3.756998E+00   3.870790E+00   3.969842E+00   4.043752E+00   4.095037E+00   4.129649E+00   4.161071E+00   4.187586E+00   4.202641E+00   4.222458E+00   4.238544E+00   4.251925E+00   4.250603E+00   4.239091E+00   4.202359E+00   4.153237E+00   4.090059E+00   4.032167E+00   3.993714E+00   3.975628E+00   3.977442E+00   3.985339E+00   4.000347E+00   4.005165E+00   4.010202E+00   4.009879E+00   3.991120E+00   3.983130E+00   3.979254E+00
   3.931077E+00   3.887696E+00   3.829729E+00   3.762507E+00   3.694413E+00   3.655351E+00   3.623325E+00   3.599524E+00   3.585237E+00   3.568805E+00   3.517920E+00   3.458666E+00   3.365990E+00   3.277351E+00   3.188754E+00   3.124043E+00   3.087804E+00   3.089133E+00   3.108543E+00   3.145600E+00   3.206592E+00   3.294472E+00   3.408540E+00   3.545851E+00   3.701005E+00   3.869146E+00   4.043991E+00   4.212752E+00   4.363800E+00   4.476820E+00   4.542851E+00   4.578720E+00   4.539738E+00   4.450359E+00   4.314291E+00   4.167437E+00   4.017424E+00   3.866973E+00   3.721744E+00   3.617707E+00   3.532512E+00   3.477967E+00   3.426961E+00   3.378434E+00   3.327147E+00   3.299577E+00   3.291531E+00   3.285604E+00   3.282879E+00   3.269456E+00   3.241890E+00   3.198005E+00   3.151795E+00   3.091428E+00   3.018992E+00   2.952783E+00   2.904503E+00   2.881152E+00   2.896699E+00   2.955736E+00   3.048224E+00   3.177424E+00   3.316476E+00   3.439442E+00   3.540979E+00   3.620308E+00   3.659874E+00   3.670950E+00   3.654566E+00   3.607791E+00   3.536800E+00   3.463012E+00   3.394765E+00   3.346504E+00   3.318124E+00   3.305608E+00   3.306648E+00   3.317165E+00   3.330680E+00   3.344622E+00   3.346174E+00   3.339697E+00   3.320339E+00   3.291615E+00   3.255606E+00   3.224162E+00   3.214314E+00   3.223275E+00   3.256951E+00   3.326750E+00   3.449580E+00   3.571630E+00   3.708122E+00   3.808228E+00   3.860965E+00   3.866003E+00   3.817600E+00   3.748288E+00   3.659038E+00   3.553279E+00   3.436256E+00   3.309398E+00   3.182846E+00   3.082054E+00   3.002714E+00   2.939488E+00   2.898922E+00   2.875453E+00   2.857702E+00   2.842454E+00   2.822935E+00   2.810312E+00   2.814303E+00   2.823799E+00   2.855546E+00   2.913041E+00   2.996771E+00   3.108207E+00   3.251582E+00   3.408092E+00   3.570882E+00   3.748478E+00   3.919943E+00   4.086936E+00   4.236336E+00   4.381819E+00   4.511707E+00   4.608137E+00   4.648717E+00   4.659166E+00   4.639182E+00   4.593670E+00   4.519128E+00   4.415653E+00   4.309556E+00   4.212507E+00   4.140114E+00   4.086739E+00   4.073842E+00   4.088727E+00   4.139126E+00   4.223002E+00   4.297697E+00   4.407341E+00   4.526358E+00   4.681560E+00   4.855277E+00   5.038630E+00   5.183372E+00   5.231142E+00   5.196108E+00   5.073253E+00   4.905725E+00   4.710887E+00   4.497797E+00   4.285024E+00   4.077554E+00   3.883848E+00   3.689732E+00   3.513339E+00   3.339260E+00   3.195041E+00   3.067138E+00   2.986236E+00   2.935790E+00   2.910959E+00   2.919217E+00   2.971790E+00   3.068495E+00   3.208207E+00   3.374252E+00   3.558540E+00   3.746939E+00   3.910156E+00   4.046165E+00   4.142826E+00   4.213831E+00   4.271234E+00   4.313596E+00   4.348450E+00   4.379712E+00   4.415060E+00   4.425352E+00   4.420526E+00   4.382340E+00   4.328978E+00   4.248022E+00   4.153258E+00   4.068608E+00   4.005105E+00   4.004165E+00   4.019008E+00   4.044973E+00   4.059652E+00   4.058022E+00   4.054769E+00   4.036810E+00   4.011687E+00   3.986645E+00   3.982280E+00
   3.911414E+00   3.831447E+00   3.749017E+00   3.665182E+00   3.598217E+00   3.527244E+00   3.481748E+00   3.447807E+00   3.425958E+00   3.389408E+00   3.341844E+00   3.261128E+00   3.174167E+00   3.070109E+00   2.974171E+00   2.896833E+00   2.852830E+00   2.845503E+00   2.865722E+00   2.911988E+00   2.975971E+00   3.078661E+00   3.215256E+00   3.387054E+00   3.576522E+00   3.792902E+00   4.037573E+00   4.276271E+00   4.495229E+00   4.657401E+00   4.768394E+00   4.801672E+00   4.763198E+00   4.653185E+00   4.501172E+00   4.293627E+00   4.083025E+00   3.863879E+00   3.680670E+00   3.529237E+00   3.416544E+00   3.325757E+00   3.259492E+00   3.194786E+00   3.127124E+00   3.063798E+00   3.039099E+00   3.013976E+00   3.011951E+00   3.010850E+00   3.004243E+00   2.979004E+00   2.952851E+00   2.897496E+00   2.834378E+00   2.772297E+00   2.717504E+00   2.691561E+00   2.709456E+00   2.778908E+00   2.893457E+00   3.038383E+00   3.196759E+00   3.347648E+00   3.465133E+00   3.536605E+00   3.565536E+00   3.554842E+00   3.505433E+00   3.429688E+00   3.323715E+00   3.222568E+00   3.129629E+00   3.062853E+00   3.020880E+00   3.000602E+00   3.008518E+00   3.033338E+00   3.074504E+00   3.111061E+00   3.131064E+00   3.131505E+00   3.116714E+00   3.074257E+00   3.034427E+00   2.993410E+00   2.965065E+00   2.957838E+00   2.984637E+00   3.066859E+00   3.196449E+00   3.362278E+00   3.523985E+00   3.668016E+00   3.738960E+00   3.748631E+00   3.707935E+00   3.629915E+00   3.533928E+00   3.403585E+00   3.255967E+00   3.101966E+00   2.953161E+00   2.817317E+00   2.714410E+00   2.633779E+00   2.576623E+00   2.543538E+00   2.525730E+00   2.512101E+00   2.502162E+00   2.500935E+00   2.520249E+00   2.552162E+00   2.595033E+00   2.671646E+00   2.768824E+00   2.892205E+00   3.055761E+00   3.236711E+00   3.429621E+00   3.652667E+00   3.877897E+00   4.097724E+00   4.299376E+00   4.472278E+00   4.633188E+00   4.738585E+00   4.800532E+00   4.799522E+00   4.754867E+00   4.666655E+00   4.541525E+00   4.403042E+00   4.262414E+00   4.144972E+00   4.047049E+00   4.002170E+00   3.997848E+00   4.043095E+00   4.128344E+00   4.227334E+00   4.359883E+00   4.515590E+00   4.711504E+00   4.935384E+00   5.205701E+00   5.456116E+00   5.644187E+00   5.718157E+00   5.676060E+00   5.513442E+00   5.266402E+00   4.981946E+00   4.677994E+00   4.378204E+00   4.084989E+00   3.801317E+00   3.529238E+00   3.281418E+00   3.065644E+00   2.875439E+00   2.743159E+00   2.652075E+00   2.600276E+00   2.586757E+00   2.616854E+00   2.692872E+00   2.816226E+00   2.984038E+00   3.191865E+00   3.408581E+00   3.632260E+00   3.836477E+00   4.016756E+00   4.146598E+00   4.244237E+00   4.310036E+00   4.362062E+00   4.400613E+00   4.423579E+00   4.431031E+00   4.437900E+00   4.416080E+00   4.374551E+00   4.306826E+00   4.232041E+00   4.167679E+00   4.107879E+00   4.083467E+00   4.095778E+00   4.140684E+00   4.191428E+00   4.206358E+00   4.196282E+00   4.158075E+00   4.116500E+00   4.075960E+00   4.039203E+00   4.009589E+00
   3.896342E+00   3.807978E+00   3.706521E+00   3.616928E+00   3.543799E+00   3.483014E+00   3.425961E+00   3.385802E+00   3.347989E+00   3.304400E+00   3.237107E+00   3.161525E+00   3.059889E+00   2.958123E+00   2.860556E+00   2.787686E+00   2.737532E+00   2.721607E+00   2.738361E+00   2.785032E+00   2.846461E+00   2.943670E+00   3.080673E+00   3.263278E+00   3.475828E+00   3.717696E+00   3.983164E+00   4.264555E+00   4.516513E+00   4.716508E+00   4.850728E+00   4.916263E+00   4.878443E+00   4.797673E+00   4.628101E+00   4.408591E+00   4.160363E+00   3.905224E+00   3.672002E+00   3.492844E+00   3.348242E+00   3.229410E+00   3.124970E+00   3.028592E+00   2.943915E+00   2.873120E+00   2.827113E+00   2.791304E+00   2.786405E+00   2.799839E+00   2.824618E+00   2.847545E+00   2.863767E+00   2.862963E+00   2.829674E+00   2.784312E+00   2.741109E+00   2.725616E+00   2.748416E+00   2.821137E+00   2.940813E+00   3.095218E+00   3.255880E+00   3.401162E+00   3.504291E+00   3.550948E+00   3.540811E+00   3.482958E+00   3.396749E+00   3.283475E+00   3.157724E+00   3.024662E+00   2.914236E+00   2.824697E+00   2.781025E+00   2.771839E+00   2.795047E+00   2.835561E+00   2.895403E+00   2.947316E+00   2.992071E+00   3.008140E+00   2.995930E+00   2.955236E+00   2.894293E+00   2.837092E+00   2.786857E+00   2.764447E+00   2.784040E+00   2.851990E+00   2.984956E+00   3.145584E+00   3.331691E+00   3.492164E+00   3.601054E+00   3.640654E+00   3.616701E+00   3.548831E+00   3.453865E+00   3.323775E+00   3.169207E+00   2.995824E+00   2.832833E+00   2.694793E+00   2.573975E+00   2.487856E+00   2.433931E+00   2.393479E+00   2.380847E+00   2.366799E+00   2.370384E+00   2.384928E+00   2.415637E+00   2.465881E+00   2.529690E+00   2.615975E+00   2.714160E+00   2.835313E+00   2.981676E+00   3.154765E+00   3.350011E+00   3.571139E+00   3.813229E+00   4.059031E+00   4.280603E+00   4.464138E+00   4.608778E+00   4.703994E+00   4.741499E+00   4.728884E+00   4.662129E+00   4.551553E+00   4.400033E+00   4.236121E+00   4.082414E+00   3.944731E+00   3.856597E+00   3.807493E+00   3.816533E+00   3.887940E+00   4.005513E+00   4.150417E+00   4.329678E+00   4.554157E+00   4.812048E+00   5.115267E+00   5.423115E+00   5.738271E+00   5.979848E+00   6.085887E+00   6.044956E+00   5.856807E+00   5.552077E+00   5.189352E+00   4.811021E+00   4.452596E+00   4.093212E+00   3.749065E+00   3.425445E+00   3.138800E+00   2.889576E+00   2.700795E+00   2.550892E+00   2.445334E+00   2.391738E+00   2.380515E+00   2.413053E+00   2.497872E+00   2.634409E+00   2.831604E+00   3.050424E+00   3.292474E+00   3.532563E+00   3.767259E+00   3.958914E+00   4.114034E+00   4.210283E+00   4.282527E+00   4.320096E+00   4.340219E+00   4.338154E+00   4.335604E+00   4.303609E+00   4.281408E+00   4.231878E+00   4.189786E+00   4.155478E+00   4.129904E+00   4.138890E+00   4.185317E+00   4.258912E+00   4.340974E+00   4.394039E+00   4.415621E+00   4.386053E+00   4.323294E+00   4.237002E+00   4.156026E+00   4.091966E+00   4.036533E+00
   3.901715E+00   3.809748E+00   3.712932E+00   3.630058E+00   3.558316E+00   3.492718E+00   3.437767E+00   3.386269E+00   3.349698E+00   3.288369E+00   3.216008E+00   3.121207E+00   3.023082E+00   2.922305E+00   2.830949E+00   2.752783E+00   2.701359E+00   2.678377E+00   2.699406E+00   2.742153E+00   2.817208E+00   2.926059E+00   3.055749E+00   3.229744E+00   3.437835E+00   3.674964E+00   3.932160E+00   4.187320E+00   4.435135E+00   4.641859E+00   4.792428E+00   4.872726E+00   4.909262E+00   4.865279E+00   4.747454E+00   4.554893E+00   4.324747E+00   4.031034E+00   3.759835E+00   3.509382E+00   3.314670E+00   3.157169E+00   3.023160E+00   2.904157E+00   2.800023E+00   2.721658E+00   2.671364E+00   2.639154E+00   2.636679E+00   2.670236E+00   2.738534E+00   2.822674E+00   2.909704E+00   2.960149E+00   2.975673E+00   2.959789E+00   2.944964E+00   2.944332E+00   2.982411E+00   3.057082E+00   3.183924E+00   3.340916E+00   3.498273E+00   3.626716E+00   3.702626E+00   3.704888E+00   3.642946E+00   3.534542E+00   3.393710E+00   3.237269E+00   3.073636E+00   2.923591E+00   2.787816E+00   2.690664E+00   2.641100E+00   2.635615E+00   2.664675E+00   2.728787E+00   2.799543E+00   2.865820E+00   2.917868E+00   2.931125E+00   2.906042E+00   2.851647E+00   2.781787E+00   2.705062E+00   2.636801E+00   2.599402E+00   2.599345E+00   2.653991E+00   2.769926E+00   2.935934E+00   3.119443E+00   3.298933E+00   3.442423E+00   3.518480E+00   3.534425E+00   3.508791E+00   3.444845E+00   3.340825E+00   3.192727E+00   3.012997E+00   2.849344E+00   2.706575E+00   2.596074E+00   2.518654E+00   2.464172E+00   2.428155E+00   2.404453E+00   2.406646E+00   2.421978E+00   2.448314E+00   2.486431E+00   2.553017E+00   2.621555E+00   2.697938E+00   2.789522E+00   2.882974E+00   3.000344E+00   3.140969E+00   3.319811E+00   3.524030E+00   3.753616E+00   3.991753E+00   4.188027E+00   4.355686E+00   4.461446E+00   4.499746E+00   4.505596E+00   4.484958E+00   4.418960E+00   4.309699E+00   4.154613E+00   4.001705E+00   3.840510E+00   3.701926E+00   3.601198E+00   3.565947E+00   3.585161E+00   3.674888E+00   3.811952E+00   4.004641E+00   4.233594E+00   4.506359E+00   4.817828E+00   5.152852E+00   5.490709E+00   5.838335E+00   6.114489E+00   6.269952E+00   6.252358E+00   6.082904E+00   5.760041E+00   5.356215E+00   4.928624E+00   4.505346E+00   4.099592E+00   3.720860E+00   3.369048E+00   3.066713E+00   2.811427E+00   2.601352E+00   2.445756E+00   2.332606E+00   2.270946E+00   2.255195E+00   2.288594E+00   2.376605E+00   2.523774E+00   2.715873E+00   2.945401E+00   3.191464E+00   3.443972E+00   3.689782E+00   3.914238E+00   4.080867E+00   4.193704E+00   4.247561E+00   4.280298E+00   4.269217E+00   4.248625E+00   4.207312E+00   4.173233E+00   4.135705E+00   4.108445E+00   4.081625E+00   4.088797E+00   4.122991E+00   4.193784E+00   4.301193E+00   4.423857E+00   4.541324E+00   4.623127E+00   4.633940E+00   4.597937E+00   4.522554E+00   4.414515E+00   4.300165E+00   4.189111E+00   4.089309E+00
   3.927664E+00   3.860410E+00   3.788316E+00   3.722800E+00   3.643237E+00   3.574521E+00   3.506571E+00   3.459507E+00   3.411945E+00   3.347037E+00   3.262358E+00   3.163649E+00   3.052424E+00   2.955763E+00   2.864443E+00   2.790970E+00   2.732915E+00   2.715820E+00   2.734270E+00   2.797494E+00   2.881191E+00   2.997171E+00   3.127396E+00   3.292455E+00   3.479834E+00   3.680695E+00   3.901017E+00   4.137759E+00   4.358217E+00   4.559189E+00   4.716289E+00   4.837483E+00   4.929403E+00   4.955210E+00   4.887389E+00   4.750073E+00   4.529948E+00   4.227860E+00   3.909062E+00   3.604943E+00   3.351662E+00   3.145184E+00   2.971325E+00   2.837493E+00   2.728631E+00   2.643026E+00   2.593956E+00   2.572631E+00   2.599738E+00   2.666890E+00   2.775922E+00   2.913084E+00   3.051144E+00   3.165495E+00   3.227465E+00   3.263269E+00   3.280605E+00   3.300558E+00   3.350402E+00   3.445129E+00   3.576078E+00   3.731893E+00   3.893996E+00   4.002337E+00   4.042365E+00   3.995194E+00   3.872529E+00   3.710758E+00   3.517590E+00   3.312946E+00   3.124891E+00   2.945876E+00   2.802745E+00   2.693837E+00   2.638264E+00   2.633488E+00   2.658851E+00   2.716069E+00   2.789283E+00   2.846996E+00   2.889263E+00   2.890087E+00   2.852617E+00   2.789805E+00   2.706658E+00   2.613847E+00   2.526763E+00   2.465555E+00   2.452551E+00   2.498113E+00   2.602007E+00   2.761125E+00   2.956178E+00   3.156622E+00   3.335502E+00   3.461082E+00   3.530895E+00   3.550817E+00   3.522516E+00   3.436916E+00   3.299622E+00   3.143905E+00   2.984374E+00   2.847571E+00   2.743564E+00   2.675174E+00   2.635830E+00   2.605845E+00   2.594491E+00   2.591954E+00   2.609055E+00   2.639111E+00   2.691061E+00   2.750515E+00   2.812744E+00   2.870435E+00   2.921139E+00   2.980816E+00   3.060443E+00   3.169327E+00   3.313422E+00   3.482992E+00   3.679485E+00   3.872043E+00   4.036571E+00   4.143168E+00   4.185524E+00   4.176309E+00   4.163419E+00   4.129845E+00   4.091939E+00   4.017721E+00   3.917330E+00   3.791237E+00   3.648097E+00   3.509117E+00   3.404865E+00   3.358250E+00   3.388985E+00   3.480006E+00   3.632635E+00   3.854606E+00   4.108478E+00   4.401653E+00   4.728024E+00   5.082638E+00   5.441310E+00   5.797949E+00   6.093384E+00   6.276017E+00   6.311512E+00   6.159182E+00   5.833249E+00   5.430714E+00   4.999356E+00   4.559466E+00   4.133878E+00   3.732488E+00   3.385927E+00   3.081231E+00   2.821695E+00   2.606844E+00   2.437530E+00   2.311646E+00   2.234571E+00   2.206758E+00   2.236058E+00   2.315428E+00   2.456407E+00   2.644603E+00   2.874006E+00   3.128653E+00   3.389915E+00   3.645241E+00   3.862048E+00   4.030903E+00   4.143687E+00   4.210101E+00   4.221111E+00   4.216856E+00   4.168742E+00   4.131910E+00   4.084473E+00   4.053979E+00   4.027825E+00   4.034630E+00   4.065981E+00   4.130565E+00   4.237828E+00   4.388613E+00   4.553107E+00   4.687755E+00   4.764395E+00   4.776335E+00   4.729295E+00   4.654618E+00   4.559046E+00   4.432475E+00   4.291473E+00   4.145065E+00
   3.979136E+00   3.955895E+00   3.915815E+00   3.845797E+00   3.786831E+00   3.701818E+00   3.639916E+00   3.584738E+00   3.538048E+00   3.469322E+00   3.374098E+00   3.260194E+00   3.136518E+00   3.032069E+00   2.942462E+00   2.871096E+00   2.819097E+00   2.790319E+00   2.819579E+00   2.883034E+00   2.983967E+00   3.109961E+00   3.236598E+00   3.391111E+00   3.556468E+00   3.739746E+00   3.941113E+00   4.130476E+00   4.330851E+00   4.528869E+00   4.722216E+00   4.876404E+00   4.994264E+00   5.068578E+00   5.075225E+00   4.981075E+00   4.779805E+00   4.476371E+00   4.124664E+00   3.774300E+00   3.476836E+00   3.219839E+00   3.016709E+00   2.855513E+00   2.731869E+00   2.650897E+00   2.602306E+00   2.606396E+00   2.658779E+00   2.753455E+00   2.901189E+00   3.082786E+00   3.263772E+00   3.424359E+00   3.534617E+00   3.599645E+00   3.639742E+00   3.669780E+00   3.741145E+00   3.854363E+00   4.002661E+00   4.173294E+00   4.335577E+00   4.434337E+00   4.437497E+00   4.351147E+00   4.188564E+00   3.979656E+00   3.749267E+00   3.519997E+00   3.295259E+00   3.104059E+00   2.943334E+00   2.832177E+00   2.759350E+00   2.729769E+00   2.734751E+00   2.771277E+00   2.823312E+00   2.866245E+00   2.879854E+00   2.862273E+00   2.808068E+00   2.741478E+00   2.650972E+00   2.550569E+00   2.459894E+00   2.393864E+00   2.382156E+00   2.432415E+00   2.542778E+00   2.699185E+00   2.900733E+00   3.110568E+00   3.316471E+00   3.494396E+00   3.620959E+00   3.674224E+00   3.670658E+00   3.599540E+00   3.483800E+00   3.343777E+00   3.200017E+00   3.071693E+00   2.981675E+00   2.925698E+00   2.895436E+00   2.879061E+00   2.873582E+00   2.872834E+00   2.885050E+00   2.914054E+00   2.965034E+00   3.022246E+00   3.066083E+00   3.108213E+00   3.121998E+00   3.138879E+00   3.170452E+00   3.221004E+00   3.308444E+00   3.420904E+00   3.553348E+00   3.683102E+00   3.774518E+00   3.814256E+00   3.802572E+00   3.771413E+00   3.744008E+00   3.736676E+00   3.735439E+00   3.735991E+00   3.699066E+00   3.620064E+00   3.521114E+00   3.398108E+00   3.291692E+00   3.229586E+00   3.249706E+00   3.343617E+00   3.512983E+00   3.754050E+00   4.030913E+00   4.333341E+00   4.646410E+00   4.979329E+00   5.326520E+00   5.671191E+00   5.979154E+00   6.191046E+00   6.240743E+00   6.111258E+00   5.835522E+00   5.473397E+00   5.047970E+00   4.617991E+00   4.185843E+00   3.798596E+00   3.451787E+00   3.153716E+00   2.899925E+00   2.673479E+00   2.492696E+00   2.357539E+00   2.272979E+00   2.236827E+00   2.258485E+00   2.327662E+00   2.456031E+00   2.632627E+00   2.854702E+00   3.111851E+00   3.386793E+00   3.643994E+00   3.849699E+00   4.000877E+00   4.093155E+00   4.132579E+00   4.143525E+00   4.117045E+00   4.075365E+00   4.033196E+00   3.996008E+00   3.960800E+00   3.950280E+00   3.955671E+00   4.001063E+00   4.076417E+00   4.203259E+00   4.372467E+00   4.537327E+00   4.675749E+00   4.759219E+00   4.768257E+00   4.728062E+00   4.655858E+00   4.566798E+00   4.446501E+00   4.311263E+00   4.159007E+00
   4.043835E+00   4.084032E+00   4.071232E+00   4.037032E+00   3.960620E+00   3.884775E+00   3.813288E+00   3.759148E+00   3.692672E+00   3.603755E+00   3.479712E+00   3.349804E+00   3.220962E+00   3.113715E+00   3.027243E+00   2.968051E+00   2.913173E+00   2.900466E+00   2.923877E+00   2.988599E+00   3.087714E+00   3.213991E+00   3.341666E+00   3.478328E+00   3.627002E+00   3.797239E+00   3.965671E+00   4.147746E+00   4.341957E+00   4.552025E+00   4.756670E+00   4.955142E+00   5.105742E+00   5.218239E+00   5.244605E+00   5.180963E+00   5.009974E+00   4.737203E+00   4.381415E+00   4.004571E+00   3.652414E+00   3.364324E+00   3.127202E+00   2.945491E+00   2.819949E+00   2.736069E+00   2.707194E+00   2.716835E+00   2.787184E+00   2.908784E+00   3.080058E+00   3.271825E+00   3.457512E+00   3.627667E+00   3.747243E+00   3.825459E+00   3.873715E+00   3.940419E+00   4.035565E+00   4.175194E+00   4.366339E+00   4.565806E+00   4.748919E+00   4.856022E+00   4.847617E+00   4.724071E+00   4.530278E+00   4.301345E+00   4.056834E+00   3.805418E+00   3.577532E+00   3.378182E+00   3.201192E+00   3.064961E+00   2.967247E+00   2.904922E+00   2.885201E+00   2.879736E+00   2.895353E+00   2.904052E+00   2.899220E+00   2.858479E+00   2.798049E+00   2.723719E+00   2.642616E+00   2.554930E+00   2.475611E+00   2.430590E+00   2.431395E+00   2.497006E+00   2.613689E+00   2.782143E+00   2.976078E+00   3.193567E+00   3.412424E+00   3.608286E+00   3.763587E+00   3.838130E+00   3.842964E+00   3.784683E+00   3.672553E+00   3.546639E+00   3.415647E+00   3.298382E+00   3.212088E+00   3.164216E+00   3.148446E+00   3.143246E+00   3.147538E+00   3.159467E+00   3.178482E+00   3.207176E+00   3.259876E+00   3.310674E+00   3.340211E+00   3.345657E+00   3.324392E+00   3.287749E+00   3.258227E+00   3.244920E+00   3.259703E+00   3.297918E+00   3.354306E+00   3.409995E+00   3.442200E+00   3.444118E+00   3.415019E+00   3.382045E+00   3.374820E+00   3.389972E+00   3.444617E+00   3.502531E+00   3.535351E+00   3.518891E+00   3.461798E+00   3.369461E+00   3.284327E+00   3.227824E+00   3.242996E+00   3.322571E+00   3.491177E+00   3.741963E+00   4.034757E+00   4.339314E+00   4.637117E+00   4.932552E+00   5.240763E+00   5.558037E+00   5.847848E+00   6.060749E+00   6.144360E+00   6.064007E+00   5.841092E+00   5.502611E+00   5.103306E+00   4.676016E+00   4.270212E+00   3.886524E+00   3.560564E+00   3.278481E+00   3.028777E+00   2.794121E+00   2.601390E+00   2.452869E+00   2.352567E+00   2.309579E+00   2.314588E+00   2.383054E+00   2.500297E+00   2.669658E+00   2.872688E+00   3.123577E+00   3.386053E+00   3.628450E+00   3.815983E+00   3.945014E+00   4.012919E+00   4.036668E+00   4.032755E+00   3.991087E+00   3.961670E+00   3.941792E+00   3.915615E+00   3.893888E+00   3.876238E+00   3.878784E+00   3.914272E+00   3.979182E+00   4.088581E+00   4.229381E+00   4.381872E+00   4.500956E+00   4.581510E+00   4.594069E+00   4.575706E+00   4.527431E+00   4.442627E+00   4.360692E+00   4.255026E+00   4.139212E+00
   4.118093E+00   4.210639E+00   4.262491E+00   4.249776E+00   4.208235E+00   4.124876E+00   4.064909E+00   3.997121E+00   3.908986E+00   3.779346E+00   3.618479E+00   3.458686E+00   3.315037E+00   3.196367E+00   3.115344E+00   3.067804E+00   3.035778E+00   3.024030E+00   3.037148E+00   3.090710E+00   3.170200E+00   3.275930E+00   3.403304E+00   3.531754E+00   3.672226E+00   3.816425E+00   3.980095E+00   4.159717E+00   4.383680E+00   4.596684E+00   4.814201E+00   5.006384E+00   5.182065E+00   5.289951E+00   5.336576E+00   5.285880E+00   5.156839E+00   4.925704E+00   4.612214E+00   4.239950E+00   3.878093E+00   3.554781E+00   3.295569E+00   3.101537E+00   2.960112E+00   2.877450E+00   2.847045E+00   2.876689E+00   2.957602E+00   3.078053E+00   3.237854E+00   3.413221E+00   3.594819E+00   3.735690E+00   3.841979E+00   3.909215E+00   3.972667E+00   4.057439E+00   4.187021E+00   4.375959E+00   4.611520E+00   4.858950E+00   5.051365E+00   5.164824E+00   5.162140E+00   5.044357E+00   4.843048E+00   4.610394E+00   4.365959E+00   4.127482E+00   3.916477E+00   3.719655E+00   3.534285E+00   3.381245E+00   3.237473E+00   3.137147E+00   3.067066E+00   3.019062E+00   2.985539E+00   2.954736E+00   2.920029E+00   2.866575E+00   2.804079E+00   2.741785E+00   2.669154E+00   2.616579E+00   2.576004E+00   2.565944E+00   2.601384E+00   2.682006E+00   2.829127E+00   3.010985E+00   3.223385E+00   3.450387E+00   3.653916E+00   3.813309E+00   3.943392E+00   4.020677E+00   4.009194E+00   3.952318E+00   3.841491E+00   3.726104E+00   3.609753E+00   3.505930E+00   3.425299E+00   3.372817E+00   3.342267E+00   3.343390E+00   3.353875E+00   3.379470E+00   3.413013E+00   3.449157E+00   3.492067E+00   3.512918E+00   3.511066E+00   3.486026E+00   3.432821E+00   3.358449E+00   3.270384E+00   3.190007E+00   3.132789E+00   3.100373E+00   3.091370E+00   3.086303E+00   3.077389E+00   3.064362E+00   3.046114E+00   3.046379E+00   3.069626E+00   3.128777E+00   3.219496E+00   3.329441E+00   3.412946E+00   3.460417E+00   3.453717E+00   3.415540E+00   3.354388E+00   3.319537E+00   3.333762E+00   3.425061E+00   3.583544E+00   3.818331E+00   4.091347E+00   4.376611E+00   4.643219E+00   4.915647E+00   5.189751E+00   5.482500E+00   5.739978E+00   5.937655E+00   6.021720E+00   5.970055E+00   5.784022E+00   5.507333E+00   5.158968E+00   4.774489E+00   4.399209E+00   4.037595E+00   3.708272E+00   3.425701E+00   3.169734E+00   2.936745E+00   2.730060E+00   2.577237E+00   2.473295E+00   2.423514E+00   2.431304E+00   2.486006E+00   2.602504E+00   2.752751E+00   2.949684E+00   3.173843E+00   3.410136E+00   3.628027E+00   3.805283E+00   3.902395E+00   3.956617E+00   3.969908E+00   3.954557E+00   3.918902E+00   3.894146E+00   3.873772E+00   3.863190E+00   3.837025E+00   3.818712E+00   3.803046E+00   3.816315E+00   3.857720E+00   3.934217E+00   4.037942E+00   4.145296E+00   4.243928E+00   4.295333E+00   4.320610E+00   4.320642E+00   4.298068E+00   4.258188E+00   4.217098E+00   4.165339E+00   4.084782E+00