# LPF package for  MODFLOW-2005, generated by Flopy.
         0    -1E+30         0  
         0
         0
   1.000000E+00
         0
         0
INTERNAL               1 (200E15.6) -1 #hk layer 1                    
   3.962806E+00   3.935295E+00   3.904656E+00   3.862649E+00   3.833908E+00   3.813483E+00   3.802127E+00   3.789383E+00   3.787764E+00   3.761493E+00   3.732046E+00   3.689003E+00   3.641751E+00   3.585323E+00   3.527708E+00   3.488788E+00   3.471265E+00   3.475573E+00   3.487825E+00   3.514922E+00   3.555430E+00   3.610152E+00   3.676175E+00   3.769681E+00   3.856367E+00   3.942554E+00   4.023927E+00   4.102507E+00   4.173259E+00   4.228765E+00   4.263361E+00   4.278049E+00   4.262377E+00   4.208668E+00   4.144061E+00   4.061000E+00   3.983636E+00   3.902498E+00   3.837352E+00   3.780461E+00   3.734431E+00   3.705100E+00   3.677745E+00   3.641556E+00   3.612244E+00   3.596316E+00   3.597955E+00   3.596520E+00   3.597132E+00   3.587756E+00   3.565963E+00   3.538553E+00   3.502691E+00   3.461008E+00   3.425271E+00   3.380525E+00   3.348208E+00   3.330776E+00   3.342744E+00   3.384933E+00   3.438047E+00   3.508820E+00   3.589167E+00   3.667728E+00   3.725095E+00   3.774368E+00   3.803950E+00   3.824184E+00   3.826131E+00   3.806184E+00   3.768747E+00   3.724354E+00   3.683972E+00   3.658911E+00   3.654802E+00   3.647232E+00   3.655488E+00   3.651782E+00   3.644579E+00   3.635148E+00   3.635737E+00   3.623705E+00   3.611356E+00   3.599397E+00   3.582996E+00   3.572142E+00   3.569916E+00   3.582233E+00   3.598199E+00   3.648996E+00   3.714870E+00   3.790877E+00   3.863251E+00   3.918285E+00   3.938008E+00   3.934220E+00   3.911716E+00   3.868081E+00   3.820107E+00   3.755155E+00   3.688730E+00   3.614300E+00   3.538772E+00   3.483492E+00   3.436775E+00   3.398598E+00   3.375437E+00   3.354351E+00   3.352420E+00   3.340911E+00   3.328655E+00   3.308976E+00   3.299401E+00   3.305095E+00   3.313954E+00   3.344126E+00   3.403554E+00   3.482084E+00   3.577622E+00   3.682119E+00   3.773374E+00   3.873638E+00   3.963279E+00   4.047603E+00   4.127314E+00   4.192810E+00   4.268396E+00   4.325336E+00   4.356928E+00   4.373179E+00   4.360327E+00   4.335651E+00   4.308418E+00   4.267614E+00   4.212978E+00   4.169046E+00   4.111032E+00   4.072301E+00   4.050410E+00   4.051551E+00   4.074258E+00   4.106832E+00   4.158827E+00   4.213356E+00   4.279565E+00   4.349161E+00   4.431453E+00   4.525259E+00   4.590804E+00   4.617043E+00   4.595962E+00   4.545469E+00   4.458006E+00   4.371073E+00   4.269386E+00   4.164131E+00   4.064140E+00   3.962210E+00   3.866589E+00   3.760784E+00   3.673576E+00   3.573057E+00   3.493787E+00   3.439948E+00   3.401788E+00   3.384993E+00   3.389022E+00   3.415087E+00   3.461279E+00   3.544792E+00   3.647658E+00   3.756772E+00   3.870547E+00   3.969579E+00   4.043478E+00   4.094762E+00   4.129379E+00   4.160807E+00   4.187328E+00   4.202392E+00   4.222221E+00   4.238320E+00   4.251717E+00   4.250418E+00   4.238935E+00   4.202234E+00   4.153148E+00   4.090004E+00   4.032151E+00   3.993735E+00   3.975682E+00   3.977526E+00   3.985449E+00   4.000477E+00   4.005306E+00   4.010342E+00   4.010008E+00   3.991230E+00   3.983207E+00   3.979295E+00
   3.931120E+00   3.887786E+00   3.829864E+00   3.762686E+00   3.694630E+00   3.655597E+00   3.623596E+00   3.599817E+00   3.585548E+00   3.569125E+00   3.518236E+00   3.458972E+00   3.366282E+00   3.277634E+00   3.189030E+00   3.124316E+00   3.088079E+00   3.089411E+00   3.108821E+00   3.145869E+00   3.206845E+00   3.294703E+00   3.408746E+00   3.546026E+00   3.701147E+00   3.869245E+00   4.044036E+00   4.212722E+00   4.363679E+00   4.476602E+00   4.542533E+00   4.578316E+00   4.539271E+00   4.449855E+00   4.313772E+00   4.166921E+00   4.016927E+00   3.866509E+00   3.721327E+00   3.617342E+00   3.532202E+00   3.477713E+00   3.426766E+00   3.378300E+00   3.327073E+00   3.299559E+00   3.291568E+00   3.285691E+00   3.283010E+00   3.269624E+00   3.242090E+00   3.198237E+00   3.152057E+00   3.091724E+00   3.019320E+00   2.953134E+00   2.904864E+00   2.881511E+00   2.897051E+00   2.956076E+00   3.048552E+00   3.177741E+00   3.316788E+00   3.439746E+00   3.541280E+00   3.620611E+00   3.660177E+00   3.671245E+00   3.654850E+00   3.608061E+00   3.537058E+00   3.463264E+00   3.395018E+00   3.346754E+00   3.318368E+00   3.305828E+00   3.306837E+00   3.317309E+00   3.330769E+00   3.344653E+00   3.346146E+00   3.339619E+00   3.320224E+00   3.291479E+00   3.255468E+00   3.224034E+00   3.214203E+00   3.223183E+00   3.256876E+00   3.326687E+00   3.449519E+00   3.571558E+00   3.708024E+00   3.808101E+00   3.860808E+00   3.865817E+00   3.817393E+00   3.748070E+00   3.658815E+00   3.553066E+00   3.436072E+00   3.309262E+00   3.182769E+00   3.082039E+00   3.002760E+00   2.939591E+00   2.899082E+00   2.875666E+00   2.857962E+00   2.842756E+00   2.823272E+00   2.810678E+00   2.814696E+00   2.824215E+00   2.855988E+00   2.913509E+00   2.997263E+00   3.108718E+00   3.252114E+00   3.408638E+00   3.571439E+00   3.749037E+00   3.920498E+00   4.087482E+00   4.236863E+00   4.382327E+00   4.512187E+00   4.608580E+00   4.649117E+00   4.659521E+00   4.639491E+00   4.593927E+00   4.519333E+00   4.415806E+00   4.309653E+00   4.212559E+00   4.140124E+00   4.086714E+00   4.073783E+00   4.088637E+00   4.139017E+00   4.222879E+00   4.297562E+00   4.407191E+00   4.526195E+00   4.681382E+00   4.855082E+00   5.038411E+00   5.183138E+00   5.230905E+00   5.195887E+00   5.073060E+00   4.905560E+00   4.710740E+00   4.497659E+00   4.284879E+00   4.077395E+00   3.883679E+00   3.689564E+00   3.513177E+00   3.339109E+00   3.194893E+00   3.066987E+00   2.986067E+00   2.935593E+00   2.910728E+00   2.918947E+00   2.971482E+00   3.068155E+00   3.207836E+00   3.373850E+00   3.558103E+00   3.746458E+00   3.909632E+00   4.045615E+00   4.142272E+00   4.213291E+00   4.270710E+00   4.313095E+00   4.347970E+00   4.379256E+00   4.414634E+00   4.424965E+00   4.420188E+00   4.382059E+00   4.328759E+00   4.247870E+00   4.153176E+00   4.068593E+00   4.005155E+00   4.004272E+00   4.019166E+00   4.045177E+00   4.059893E+00   4.058278E+00   4.055021E+00   4.037039E+00   4.011874E+00   3.986775E+00   3.982346E+00
   3.911481E+00   3.831575E+00   3.749201E+00   3.665420E+00   3.598503E+00   3.527580E+00   3.482125E+00   3.448218E+00   3.426391E+00   3.389852E+00   3.342281E+00   3.261549E+00   3.174568E+00   3.070487E+00   2.974532E+00   2.897181E+00   2.853173E+00   2.845845E+00   2.866064E+00   2.912322E+00   2.976287E+00   3.078955E+00   3.215523E+00   3.387285E+00   3.576706E+00   3.793025E+00   4.037618E+00   4.276215E+00   4.495044E+00   4.657072E+00   4.767925E+00   4.801079E+00   4.762513E+00   4.652446E+00   4.500414E+00   4.292889E+00   4.082329E+00   3.863242E+00   3.680101E+00   3.528743E+00   3.416125E+00   3.325415E+00   3.259229E+00   3.194605E+00   3.127024E+00   3.063778E+00   3.039154E+00   3.014105E+00   3.012142E+00   3.011096E+00   3.004535E+00   2.979337E+00   2.953227E+00   2.897908E+00   2.834819E+00   2.772757E+00   2.717969E+00   2.692026E+00   2.709911E+00   2.779353E+00   2.893892E+00   3.038810E+00   3.197180E+00   3.348065E+00   3.465542E+00   3.537006E+00   3.565925E+00   3.555214E+00   3.505786E+00   3.430022E+00   3.324033E+00   3.222883E+00   3.129943E+00   3.063166E+00   3.021182E+00   3.000881E+00   3.008756E+00   3.033518E+00   3.074612E+00   3.111092E+00   3.131022E+00   3.131398E+00   3.116560E+00   3.074077E+00   3.034245E+00   2.993243E+00   2.964915E+00   2.957705E+00   2.984521E+00   3.066751E+00   3.196335E+00   3.362147E+00   3.523820E+00   3.667810E+00   3.738713E+00   3.748343E+00   3.707625E+00   3.629600E+00   3.533620E+00   3.403308E+00   3.255744E+00   3.101814E+00   2.953091E+00   2.817327E+00   2.714497E+00   2.633939E+00   2.576852E+00   2.543832E+00   2.526079E+00   2.512496E+00   2.502596E+00   2.501402E+00   2.520747E+00   2.552689E+00   2.595586E+00   2.672227E+00   2.769435E+00   2.892845E+00   3.056432E+00   3.237412E+00   3.430347E+00   3.653416E+00   3.878659E+00   4.098491E+00   4.300134E+00   4.473014E+00   4.633895E+00   4.739251E+00   4.801143E+00   4.800066E+00   4.755341E+00   4.667056E+00   4.541856E+00   4.403298E+00   4.262599E+00   4.145092E+00   4.047113E+00   4.002186E+00   3.997814E+00   4.043010E+00   4.128215E+00   4.227172E+00   4.359686E+00   4.515364E+00   4.711242E+00   4.935093E+00   5.205379E+00   5.455764E+00   5.643817E+00   5.717786E+00   5.675714E+00   5.513127E+00   5.266121E+00   4.981689E+00   4.677751E+00   4.377965E+00   4.084744E+00   3.801073E+00   3.529002E+00   3.281199E+00   3.065439E+00   2.875240E+00   2.742954E+00   2.651849E+00   2.600014E+00   2.586451E+00   2.616494E+00   2.692460E+00   2.815764E+00   2.983528E+00   3.191301E+00   3.407957E+00   3.631566E+00   3.835718E+00   4.015954E+00   4.145785E+00   4.243438E+00   4.309268E+00   4.361333E+00   4.399930E+00   4.422953E+00   4.430464E+00   4.437402E+00   4.415656E+00   4.374208E+00   4.306572E+00   4.231875E+00   4.167601E+00   4.107882E+00   4.083545E+00   4.095923E+00   4.140894E+00   4.191692E+00   4.206664E+00   4.196609E+00   4.158394E+00   4.116787E+00   4.076190E+00   4.039361E+00   4.009670E+00
   3.896425E+00   3.808132E+00   3.706740E+00   3.617208E+00   3.544141E+00   3.483413E+00   3.426410E+00   3.386291E+00   3.348501E+00   3.304919E+00   3.237617E+00   3.162019E+00   3.060356E+00   2.958560E+00   2.860965E+00   2.788074E+00   2.737907E+00   2.721977E+00   2.738728E+00   2.785389E+00   2.846800E+00   2.943986E+00   3.080958E+00   3.263524E+00   3.476018E+00   3.717816E+00   3.983192E+00   4.264459E+00   4.516262E+00   4.716088E+00   4.850141E+00   4.915528E+00   4.877603E+00   4.796771E+00   4.627187E+00   4.407707E+00   4.159539E+00   3.904478E+00   3.671345E+00   3.492276E+00   3.347763E+00   3.229017E+00   3.124664E+00   3.028375E+00   2.943790E+00   2.873091E+00   2.827178E+00   2.791457E+00   2.786637E+00   2.800143E+00   2.824987E+00   2.847971E+00   2.864245E+00   2.863483E+00   2.830225E+00   2.784879E+00   2.741679E+00   2.726179E+00   2.748964E+00   2.821672E+00   2.941338E+00   3.095734E+00   3.256387E+00   3.401655E+00   3.504768E+00   3.551402E+00   3.541242E+00   3.483361E+00   3.397127E+00   3.283834E+00   3.158071E+00   3.025007E+00   2.914585E+00   2.825044E+00   2.781365E+00   2.772156E+00   2.795323E+00   2.835774E+00   2.895534E+00   2.947358E+00   2.992028E+00   3.008023E+00   2.995755E+00   2.955034E+00   2.894084E+00   2.836891E+00   2.786667E+00   2.764275E+00   2.783879E+00   2.851831E+00   2.984784E+00   3.145386E+00   3.331449E+00   3.491873E+00   3.600710E+00   3.640268E+00   3.616292E+00   3.548426E+00   3.453489E+00   3.323457E+00   3.168968E+00   2.995678E+00   2.832789E+00   2.694843E+00   2.574114E+00   2.488081E+00   2.434234E+00   2.393852E+00   2.381279E+00   2.367276E+00   2.370901E+00   2.385476E+00   2.416218E+00   2.466491E+00   2.530329E+00   2.616646E+00   2.714859E+00   2.836044E+00   2.982439E+00   3.155562E+00   3.350842E+00   3.572006E+00   3.814122E+00   4.059944E+00   4.281520E+00   4.465039E+00   4.609650E+00   4.704825E+00   4.742271E+00   4.729583E+00   4.662741E+00   4.552075E+00   4.400468E+00   4.236473E+00   4.082685E+00   3.944927E+00   3.856727E+00   3.807562E+00   3.816539E+00   3.887880E+00   4.005388E+00   4.150232E+00   4.329437E+00   4.553858E+00   4.811698E+00   5.114869E+00   5.422679E+00   5.737794E+00   5.979355E+00   6.085400E+00   6.044496E+00   5.856379E+00   5.551685E+00   5.188982E+00   4.810670E+00   4.452254E+00   4.092883E+00   3.748744E+00   3.425140E+00   3.138512E+00   2.889305E+00   2.700534E+00   2.550622E+00   2.445039E+00   2.391403E+00   2.380130E+00   2.412612E+00   2.497373E+00   2.633850E+00   2.830983E+00   3.049736E+00   3.291708E+00   3.531711E+00   3.766324E+00   3.957921E+00   4.113015E+00   4.209282E+00   4.281567E+00   4.319197E+00   4.339394E+00   4.337411E+00   4.334947E+00   4.303048E+00   4.280944E+00   4.231517E+00   4.189530E+00   4.155322E+00   4.129836E+00   4.138906E+00   4.185410E+00   4.259079E+00   4.341207E+00   4.394327E+00   4.415952E+00   4.386403E+00   4.323637E+00   4.237303E+00   4.156269E+00   4.092135E+00   4.036619E+00
   3.901804E+00   3.809913E+00   3.713170E+00   3.630365E+00   3.558686E+00   3.493145E+00   3.438242E+00   3.386777E+00   3.350227E+00   3.288896E+00   3.216521E+00   3.121695E+00   3.023545E+00   2.922736E+00   2.831352E+00   2.753165E+00   2.701726E+00   2.678731E+00   2.699753E+00   2.742488E+00   2.817528E+00   2.926357E+00   3.056017E+00   3.229966E+00   3.437997E+00   3.675044E+00   3.932132E+00   4.187156E+00   4.434808E+00   4.641360E+00   4.791763E+00   4.871919E+00   4.908345E+00   4.864295E+00   4.746455E+00   4.553923E+00   4.323849E+00   4.030237E+00   3.759143E+00   3.508796E+00   3.314182E+00   3.156770E+00   3.022848E+00   2.903934E+00   2.799897E+00   2.721628E+00   2.671432E+00   2.639319E+00   2.636933E+00   2.670576E+00   2.738959E+00   2.823178E+00   2.910280E+00   2.960781E+00   2.976340E+00   2.960472E+00   2.945646E+00   2.945002E+00   2.983063E+00   3.057713E+00   3.184534E+00   3.341503E+00   3.498833E+00   3.627248E+00   3.703124E+00   3.705353E+00   3.643378E+00   3.534947E+00   3.394094E+00   3.237641E+00   3.074008E+00   2.923967E+00   2.788193E+00   2.691043E+00   2.641471E+00   2.635967E+00   2.664986E+00   2.729038E+00   2.799712E+00   2.865895E+00   2.917847E+00   2.931022E+00   2.905876E+00   2.851444E+00   2.781570E+00   2.704843E+00   2.636589E+00   2.599199E+00   2.599149E+00   2.653793E+00   2.769711E+00   2.935683E+00   3.119140E+00   3.298569E+00   3.442005E+00   3.518022E+00   3.533948E+00   3.508323E+00   3.444425E+00   3.340481E+00   3.192484E+00   3.012872E+00   2.849334E+00   2.706676E+00   2.596277E+00   2.518951E+00   2.464550E+00   2.428605E+00   2.404960E+00   2.407204E+00   2.422576E+00   2.448947E+00   2.487094E+00   2.553709E+00   2.622273E+00   2.698680E+00   2.790287E+00   2.883761E+00   3.001153E+00   3.141807E+00   3.320688E+00   3.524943E+00   3.754559E+00   3.992723E+00   4.189006E+00   4.356661E+00   4.462399E+00   4.500660E+00   4.506456E+00   4.485748E+00   4.419662E+00   4.310306E+00   4.155126E+00   4.002128E+00   3.840851E+00   3.702194E+00   3.601395E+00   3.566077E+00   3.585216E+00   3.674865E+00   3.811849E+00   4.004453E+00   4.233328E+00   4.506017E+00   4.817424E+00   5.152392E+00   5.490200E+00   5.837790E+00   6.113916E+00   6.269385E+00   6.251815E+00   6.082394E+00   5.759558E+00   5.355758E+00   4.928184E+00   4.504921E+00   4.099183E+00   3.720461E+00   3.368661E+00   3.066341E+00   2.811070E+00   2.601003E+00   2.445400E+00   2.332225E+00   2.270526E+00   2.254729E+00   2.288074E+00   2.376029E+00   2.523136E+00   2.715164E+00   2.944614E+00   3.190589E+00   3.443000E+00   3.688714E+00   3.913094E+00   4.079690E+00   4.192538E+00   4.246448E+00   4.279260E+00   4.268276E+00   4.247792E+00   4.206591E+00   4.172623E+00   4.135212E+00   4.108068E+00   4.081361E+00   4.088635E+00   4.122921E+00   4.193797E+00   4.301285E+00   4.424023E+00   4.541556E+00   4.623413E+00   4.634265E+00   4.598285E+00   4.522892E+00   4.414811E+00   4.300398E+00   4.189271E+00   4.089389E+00
   3.927749E+00   3.860572E+00   3.788551E+00   3.723102E+00   3.643594E+00   3.574922E+00   3.507005E+00   3.459961E+00   3.412408E+00   3.347492E+00   3.262795E+00   3.164063E+00   3.052812E+00   2.956125E+00   2.864779E+00   2.791287E+00   2.733216E+00   2.716110E+00   2.734550E+00   2.797765E+00   2.881443E+00   2.997399E+00   3.127589E+00   3.292601E+00   3.479912E+00   3.680684E+00   3.900892E+00   4.137499E+00   4.357806E+00   4.558627E+00   4.715581E+00   4.836644E+00   4.928459E+00   4.954204E+00   4.886367E+00   4.749081E+00   4.529027E+00   4.227050E+00   3.908370E+00   3.604372E+00   3.351195E+00   3.144809E+00   2.971035E+00   2.837290E+00   2.728519E+00   2.643011E+00   2.594039E+00   2.572813E+00   2.600017E+00   2.667268E+00   2.776399E+00   2.913662E+00   3.051813E+00   3.166239E+00   3.228257E+00   3.264080E+00   3.281411E+00   3.301342E+00   3.351158E+00   3.445846E+00   3.576751E+00   3.732516E+00   3.894568E+00   4.002857E+00   4.042835E+00   3.995620E+00   3.872925E+00   3.711140E+00   3.517968E+00   3.313330E+00   3.125290E+00   2.946287E+00   2.803162E+00   2.694257E+00   2.638682E+00   2.633891E+00   2.659220E+00   2.716384E+00   2.789520E+00   2.847139E+00   2.889306E+00   2.890039E+00   2.852497E+00   2.789636E+00   2.706460E+00   2.613635E+00   2.526548E+00   2.465344E+00   2.452341E+00   2.497894E+00   2.601767E+00   2.760846E+00   2.955844E+00   3.156229E+00   3.335051E+00   3.460589E+00   3.530385E+00   3.550327E+00   3.522080E+00   3.436570E+00   3.299396E+00   3.143808E+00   2.984408E+00   2.847728E+00   2.743829E+00   2.675538E+00   2.636278E+00   2.606368E+00   2.595075E+00   2.592587E+00   2.609730E+00   2.639820E+00   2.691798E+00   2.751274E+00   2.813517E+00   2.871220E+00   2.921928E+00   2.981613E+00   3.061253E+00   3.170157E+00   3.314284E+00   3.483888E+00   3.680417E+00   3.872996E+00   4.037533E+00   4.144126E+00   4.186461E+00   4.177217E+00   4.164289E+00   4.130655E+00   4.092673E+00   4.018366E+00   3.917886E+00   3.791708E+00   3.648484E+00   3.509429E+00   3.405105E+00   3.358418E+00   3.389081E+00   3.480020E+00   3.632558E+00   3.854436E+00   4.108216E+00   4.401305E+00   4.727606E+00   5.082164E+00   5.440790E+00   5.797386E+00   6.092793E+00   6.275418E+00   6.310934E+00   6.158625E+00   5.832718E+00   5.430208E+00   4.998868E+00   4.558989E+00   4.133406E+00   3.732017E+00   3.385456E+00   3.080764E+00   2.821236E+00   2.606386E+00   2.437065E+00   2.311162E+00   2.234061E+00   2.206208E+00   2.235464E+00   2.314782E+00   2.455700E+00   2.643821E+00   2.873135E+00   3.127680E+00   3.388834E+00   3.644054E+00   3.860785E+00   4.029603E+00   4.142402E+00   4.208868E+00   4.219968E+00   4.215819E+00   4.167826E+00   4.131112E+00   4.083795E+00   4.053429E+00   4.027399E+00   4.034325E+00   4.065784E+00   4.130464E+00   4.237816E+00   4.388685E+00   4.553254E+00   4.687966E+00   4.764657E+00   4.776638E+00   4.729616E+00   4.654928E+00   4.559316E+00   4.432686E+00   4.291614E+00   4.145133E+00
   3.979207E+00   3.956030E+00   3.916015E+00   3.846052E+00   3.787131E+00   3.702139E+00   3.640247E+00   3.585069E+00   3.538369E+00   3.469625E+00   3.374381E+00   3.260458E+00   3.136763E+00   3.032295E+00   2.942672E+00   2.871292E+00   2.819283E+00   2.790495E+00   2.819749E+00   2.883192E+00   2.984105E+00   3.110072E+00   3.236670E+00   3.391125E+00   3.556408E+00   3.739595E+00   3.940854E+00   4.130095E+00   4.330344E+00   4.528236E+00   4.721465E+00   4.875543E+00   4.993322E+00   5.067586E+00   5.074228E+00   4.980112E+00   4.778922E+00   4.475598E+00   4.124013E+00   3.773769E+00   3.476408E+00   3.219502E+00   3.016455E+00   2.855344E+00   2.731789E+00   2.650911E+00   2.602417E+00   2.606607E+00   2.659093E+00   2.753876E+00   2.901727E+00   3.083444E+00   3.264540E+00   3.425214E+00   3.535528E+00   3.600574E+00   3.640657E+00   3.670652E+00   3.741960E+00   3.855112E+00   4.003332E+00   4.173884E+00   4.336087E+00   4.434771E+00   4.437866E+00   4.351471E+00   4.188871E+00   3.979972E+00   3.749606E+00   3.520372E+00   3.295672E+00   3.104502E+00   2.943797E+00   2.832654E+00   2.759830E+00   2.730241E+00   2.735195E+00   2.771676E+00   2.823642E+00   2.866488E+00   2.879999E+00   2.862324E+00   2.808036E+00   2.741379E+00   2.650827E+00   2.550396E+00   2.459705E+00   2.393664E+00   2.381946E+00   2.432189E+00   2.542527E+00   2.698892E+00   2.900386E+00   3.110162E+00   3.316012E+00   3.493898E+00   3.620450E+00   3.673741E+00   3.670244E+00   3.599231E+00   3.483622E+00   3.343739E+00   3.200115E+00   3.071913E+00   2.982000E+00   2.926119E+00   2.895940E+00   2.879639E+00   2.874222E+00   2.873521E+00   2.885776E+00   2.914810E+00   2.965813E+00   3.023035E+00   3.066875E+00   3.109002E+00   3.122772E+00   3.139641E+00   3.171215E+00   3.221776E+00   3.309241E+00   3.421730E+00   3.554204E+00   3.683980E+00   3.775401E+00   3.815131E+00   3.803432E+00   3.772254E+00   3.744822E+00   3.737449E+00   3.736155E+00   3.736642E+00   3.699643E+00   3.620557E+00   3.521527E+00   3.398441E+00   3.291951E+00   3.229771E+00   3.249817E+00   3.343644E+00   3.512918E+00   3.753886E+00   4.030655E+00   4.332998E+00   4.645995E+00   4.978861E+00   5.326011E+00   5.670642E+00   5.978573E+00   6.190454E+00   6.240161E+00   6.110700E+00   5.834994E+00   5.472890E+00   5.047476E+00   4.617494E+00   4.185335E+00   3.798070E+00   3.451243E+00   3.153160E+00   2.899361E+00   2.672908E+00   2.492117E+00   2.356950E+00   2.272371E+00   2.236192E+00   2.257814E+00   2.326943E+00   2.455248E+00   2.631766E+00   2.853745E+00   3.110780E+00   3.385598E+00   3.642688E+00   3.848321E+00   3.999470E+00   4.091768E+00   4.131259E+00   4.142295E+00   4.115926E+00   4.074364E+00   4.032318E+00   3.995258E+00   3.960182E+00   3.949797E+00   3.955315E+00   4.000825E+00   4.076283E+00   4.203215E+00   4.372509E+00   4.537445E+00   4.675935E+00   4.759460E+00   4.768538E+00   4.728363E+00   4.656147E+00   4.567049E+00   4.446692E+00   4.311390E+00   4.159067E+00
   4.043882E+00   4.084126E+00   4.071370E+00   4.037205E+00   3.960810E+00   3.884963E+00   3.813463E+00   3.759301E+00   3.692798E+00   3.603854E+00   3.479790E+00   3.349865E+00   3.221011E+00   3.113757E+00   3.027276E+00   2.968075E+00   2.913191E+00   2.900477E+00   2.923880E+00   2.988593E+00   3.087692E+00   3.213940E+00   3.341572E+00   3.478174E+00   3.626772E+00   3.796925E+00   3.965261E+00   4.147232E+00   4.341341E+00   4.551311E+00   4.755862E+00   4.954254E+00   5.104802E+00   5.217282E+00   5.243667E+00   5.180080E+00   5.009175E+00   4.736510E+00   4.380837E+00   4.004106E+00   3.652050E+00   3.364049E+00   3.127009E+00   2.945381E+00   2.819923E+00   2.736132E+00   2.707353E+00   2.717092E+00   2.787545E+00   2.909263E+00   3.080661E+00   3.272554E+00   3.458347E+00   3.628588E+00   3.748209E+00   3.826435E+00   3.874658E+00   3.941303E+00   4.036362E+00   4.175892E+00   4.366924E+00   4.566278E+00   4.749279E+00   4.856288E+00   4.847812E+00   4.724229E+00   4.530436E+00   4.301541E+00   4.057086E+00   3.805743E+00   3.577924E+00   3.378636E+00   3.201691E+00   3.065492E+00   2.967793E+00   2.905466E+00   2.885732E+00   2.880232E+00   2.895797E+00   2.904418E+00   2.899493E+00   2.858652E+00   2.798128E+00   2.723718E+00   2.642551E+00   2.554818E+00   2.475463E+00   2.430410E+00   2.431190E+00   2.496774E+00   2.613420E+00   2.781830E+00   2.975715E+00   3.193152E+00   3.411965E+00   3.607802E+00   3.763102E+00   3.837687E+00   3.842607E+00   3.784446E+00   3.672456E+00   3.546685E+00   3.415823E+00   3.298673E+00   3.212477E+00   3.164686E+00   3.148988E+00   3.143849E+00   3.148194E+00   3.160166E+00   3.179214E+00   3.207927E+00   3.260637E+00   3.311436E+00   3.340963E+00   3.346386E+00   3.325090E+00   3.288424E+00   3.258890E+00   3.245588E+00   3.260388E+00   3.298629E+00   3.355045E+00   3.410754E+00   3.442966E+00   3.444880E+00   3.415776E+00   3.382795E+00   3.375559E+00   3.390691E+00   3.445299E+00   3.503167E+00   3.535930E+00   3.519398E+00   3.462227E+00   3.369811E+00   3.284598E+00   3.228014E+00   3.243103E+00   3.322587E+00   3.491095E+00   3.741785E+00   4.034487E+00   4.338963E+00   4.636696E+00   4.932083E+00   5.240253E+00   5.557499E+00   5.847289E+00   6.060181E+00   6.143801E+00   6.063469E+00   5.840582E+00   5.502126E+00   5.102827E+00   4.675520E+00   4.269686E+00   3.885964E+00   3.559963E+00   3.277847E+00   3.028115E+00   2.793445E+00   2.600705E+00   2.452180E+00   2.351871E+00   2.308865E+00   2.313845E+00   2.382263E+00   2.499442E+00   2.668718E+00   2.871650E+00   3.122417E+00   3.384763E+00   3.627049E+00   3.814512E+00   3.943525E+00   4.011464E+00   4.035282E+00   4.031462E+00   3.989908E+00   3.960605E+00   3.940853E+00   3.914809E+00   3.893223E+00   3.875717E+00   3.878402E+00   3.914016E+00   3.979039E+00   4.088534E+00   4.229421E+00   4.381992E+00   4.501142E+00   4.581750E+00   4.594347E+00   4.575999E+00   4.527710E+00   4.442867E+00   4.360878E+00   4.255148E+00   4.139269E+00
   4.118118E+00   4.210690E+00   4.262560E+00   4.249853E+00   4.208302E+00   4.124909E+00   4.064904E+00   3.997065E+00   3.908882E+00   3.779205E+00   3.618317E+00   3.458513E+00   3.314862E+00   3.196191E+00   3.115168E+00   3.067625E+00   3.035594E+00   3.023840E+00   3.036951E+00   3.090504E+00   3.169982E+00   3.275688E+00   3.403026E+00   3.531420E+00   3.671827E+00   3.815948E+00   3.979534E+00   4.159070E+00   4.382949E+00   4.595883E+00   4.813339E+00   5.005485E+00   5.181150E+00   5.289057E+00   5.335730E+00   5.285114E+00   5.156172E+00   4.925140E+00   4.611754E+00   4.239589E+00   3.877823E+00   3.554592E+00   3.295454E+00   3.101497E+00   2.960147E+00   2.877567E+00   2.847253E+00   2.876995E+00   2.958012E+00   3.078577E+00   3.238502E+00   3.413988E+00   3.595690E+00   3.736627E+00   3.842947E+00   3.910169E+00   3.973569E+00   4.058254E+00   4.187721E+00   4.376531E+00   4.611953E+00   4.859240E+00   5.051514E+00   5.164863E+00   5.162106E+00   5.044295E+00   4.843008E+00   4.610415E+00   4.366073E+00   4.127704E+00   3.916809E+00   3.720088E+00   3.534799E+00   3.381823E+00   3.238086E+00   3.137773E+00   3.067688E+00   3.019663E+00   2.986097E+00   2.955229E+00   2.920440E+00   2.866888E+00   2.804291E+00   2.741903E+00   2.669191E+00   2.616543E+00   2.575907E+00   2.565794E+00   2.601187E+00   2.681765E+00   2.828837E+00   3.010645E+00   3.222997E+00   3.449959E+00   3.653461E+00   3.812851E+00   3.942956E+00   4.020301E+00   4.008921E+00   3.952174E+00   3.841489E+00   3.726241E+00   3.610017E+00   3.506301E+00   3.425757E+00   3.373340E+00   3.342838E+00   3.344001E+00   3.354520E+00   3.380141E+00   3.413701E+00   3.449848E+00   3.492746E+00   3.513577E+00   3.511699E+00   3.486625E+00   3.433383E+00   3.358982E+00   3.270905E+00   3.190531E+00   3.133332E+00   3.100942E+00   3.091964E+00   3.086916E+00   3.078017E+00   3.064998E+00   3.046756E+00   3.047032E+00   3.070284E+00   3.129431E+00   3.220134E+00   3.330052E+00   3.413512E+00   3.460923E+00   3.454152E+00   3.415896E+00   3.354661E+00   3.319721E+00   3.333854E+00   3.425055E+00   3.583441E+00   3.818131E+00   4.091059E+00   4.376243E+00   4.642787E+00   4.915168E+00   5.189241E+00   5.481973E+00   5.739451E+00   5.937135E+00   6.021218E+00   5.969577E+00   5.783574E+00   5.506901E+00   5.158526E+00   4.774008E+00   4.398679E+00   4.037006E+00   3.707626E+00   3.425002E+00   3.168994E+00   2.935983E+00   2.729288E+00   2.576462E+00   2.472517E+00   2.422725E+00   2.430492E+00   2.485154E+00   2.601588E+00   2.751755E+00   2.948586E+00   3.172626E+00   3.408792E+00   3.626577E+00   3.803766E+00   3.900871E+00   3.955128E+00   3.968486E+00   3.953227E+00   3.917681E+00   3.893040E+00   3.872794E+00   3.862347E+00   3.836331E+00   3.818168E+00   3.802648E+00   3.816049E+00   3.857578E+00   3.934182E+00   4.037998E+00   4.145425E+00   4.244118E+00   4.295573E+00   4.320880E+00   4.320920E+00   4.298332E+00   4.258415E+00   4.217277E+00   4.165461E+00   4.084842E+00