# LPF package for  MODFLOW-2005, generated by Flopy.
         0    -1E+30         0  
         0
         0
   1.000000E+00
         0
         0
INTERNAL               1 (200E15.6) -1 #hk layer 1                    
   3.962824E+00   3.935328E+00   3.904703E+00   3.862710E+00   3.833977E+00   3.813559E+00   3.802204E+00   3.789457E+00   3.787831E+00   3.761554E+00   3.732098E+00   3.689049E+00   3.641792E+00   3.585362E+00   3.527745E+00   3.488824E+00   3.471299E+00   3.475608E+00   3.487860E+00   3.514958E+00   3.555470E+00   3.610197E+00   3.676226E+00   3.769738E+00   3.856428E+00   3.942617E+00   4.023993E+00   4.102577E+00   4.173329E+00   4.228833E+00   4.263430E+00   4.278117E+00   4.262439E+00   4.208725E+00   4.144107E+00   4.061036E+00   3.983664E+00   3.902520E+00   3.837372E+00   3.780483E+00   3.734457E+00   3.705134E+00   3.677787E+00   3.641610E+00   3.612312E+00   3.596395E+00   3.598040E+00   3.596604E+00   3.597215E+00   3.587832E+00   3.566031E+00   3.538612E+00   3.502738E+00   3.461040E+00   3.425290E+00   3.380530E+00   3.348204E+00   3.330764E+00   3.342728E+00   3.384913E+00   3.438025E+00   3.508799E+00   3.589149E+00   3.667716E+00   3.725094E+00   3.774378E+00   3.803977E+00   3.824231E+00   3.826199E+00   3.806274E+00   3.768860E+00   3.724488E+00   3.684130E+00   3.659089E+00   3.655000E+00   3.647447E+00   3.655717E+00   3.652018E+00   3.644818E+00   3.635382E+00   3.635966E+00   3.623927E+00   3.611566E+00   3.599595E+00   3.583179E+00   3.572312E+00   3.570078E+00   3.582392E+00   3.598353E+00   3.649148E+00   3.715016E+00   3.791012E+00   3.863371E+00   3.918395E+00   3.938106E+00   3.934310E+00   3.911797E+00   3.868150E+00   3.820166E+00   3.755203E+00   3.688770E+00   3.614333E+00   3.538795E+00   3.483505E+00   3.436777E+00   3.398583E+00   3.375407E+00   3.354304E+00   3.352355E+00   3.340828E+00   3.328557E+00   3.308865E+00   3.299281E+00   3.304964E+00   3.313810E+00   3.343968E+00   3.403378E+00   3.481891E+00   3.577412E+00   3.681891E+00   3.773135E+00   3.873387E+00   3.963022E+00   4.047340E+00   4.127051E+00   4.192550E+00   4.268146E+00   4.325101E+00   4.356717E+00   4.372996E+00   4.360184E+00   4.335548E+00   4.308355E+00   4.267588E+00   4.212986E+00   4.169083E+00   4.111090E+00   4.072373E+00   4.050484E+00   4.051619E+00   4.074315E+00   4.106874E+00   4.158848E+00   4.213351E+00   4.279530E+00   4.349095E+00   4.431358E+00   4.525134E+00   4.590656E+00   4.616882E+00   4.595800E+00   4.545314E+00   4.457872E+00   4.370965E+00   4.269314E+00   4.164100E+00   4.064153E+00   3.962269E+00   3.866691E+00   3.760930E+00   3.673762E+00   3.573277E+00   3.494033E+00   3.440212E+00   3.402062E+00   3.385269E+00   3.389291E+00   3.415342E+00   3.461514E+00   3.545002E+00   3.647836E+00   3.756915E+00   3.870656E+00   3.969659E+00   4.043533E+00   4.094796E+00   4.129397E+00   4.160814E+00   4.187330E+00   4.202387E+00   4.222211E+00   4.238307E+00   4.251700E+00   4.250396E+00   4.238902E+00   4.202191E+00   4.153090E+00   4.089930E+00   4.032054E+00   3.993618E+00   3.975547E+00   3.977378E+00   3.985292E+00   4.000318E+00   4.005154E+00   4.010205E+00   4.009892E+00   3.991137E+00   3.983142E+00   3.979261E+00
   3.931150E+00   3.887842E+00   3.829944E+00   3.762785E+00   3.694742E+00   3.655722E+00   3.623724E+00   3.599942E+00   3.585665E+00   3.569229E+00   3.518330E+00   3.459056E+00   3.366359E+00   3.277704E+00   3.189096E+00   3.124382E+00   3.088146E+00   3.089478E+00   3.108891E+00   3.145945E+00   3.206928E+00   3.294796E+00   3.408852E+00   3.546146E+00   3.701278E+00   3.869386E+00   4.044186E+00   4.212882E+00   4.363844E+00   4.476764E+00   4.542692E+00   4.578467E+00   4.539414E+00   4.449981E+00   4.313877E+00   4.167003E+00   4.016991E+00   3.866563E+00   3.721375E+00   3.617389E+00   3.532253E+00   3.477774E+00   3.426843E+00   3.378396E+00   3.327191E+00   3.299695E+00   3.291716E+00   3.285842E+00   3.283159E+00   3.269763E+00   3.242213E+00   3.198342E+00   3.152141E+00   3.091783E+00   3.019352E+00   2.953144E+00   2.904855E+00   2.881489E+00   2.897021E+00   2.956038E+00   3.048512E+00   3.177703E+00   3.316756E+00   3.439726E+00   3.541278E+00   3.620632E+00   3.660228E+00   3.671330E+00   3.654972E+00   3.608222E+00   3.537262E+00   3.463509E+00   3.395302E+00   3.347075E+00   3.318717E+00   3.306204E+00   3.307234E+00   3.317722E+00   3.331188E+00   3.345068E+00   3.346550E+00   3.340007E+00   3.320591E+00   3.291822E+00   3.255785E+00   3.224330E+00   3.214484E+00   3.223459E+00   3.257148E+00   3.326957E+00   3.449781E+00   3.571806E+00   3.708253E+00   3.808311E+00   3.860995E+00   3.865985E+00   3.817540E+00   3.748196E+00   3.658920E+00   3.553153E+00   3.436145E+00   3.309320E+00   3.182808E+00   3.082060E+00   3.002760E+00   2.939569E+00   2.899035E+00   2.875594E+00   2.857864E+00   2.842634E+00   2.823128E+00   2.810513E+00   2.814509E+00   2.824009E+00   2.855758E+00   2.913252E+00   2.996976E+00   3.108397E+00   3.251755E+00   3.408242E+00   3.571008E+00   3.748577E+00   3.920014E+00   4.086981E+00   4.236356E+00   4.381821E+00   4.511696E+00   4.608122E+00   4.648707E+00   4.659172E+00   4.639216E+00   4.593730E+00   4.519213E+00   4.415758E+00   4.309671E+00   4.212628E+00   4.140234E+00   4.086848E+00   4.073926E+00   4.088772E+00   4.139133E+00   4.222964E+00   4.297606E+00   4.407186E+00   4.526131E+00   4.681253E+00   4.854885E+00   5.038149E+00   5.182820E+00   5.230556E+00   5.195533E+00   5.072730E+00   4.905277E+00   4.710522E+00   4.497515E+00   4.284820E+00   4.077422E+00   3.883790E+00   3.689755E+00   3.513441E+00   3.339435E+00   3.195267E+00   3.067396E+00   2.986501E+00   2.936036E+00   2.911170E+00   2.919380E+00   2.971897E+00   3.068542E+00   3.208189E+00   3.374157E+00   3.558355E+00   3.746654E+00   3.909775E+00   4.045710E+00   4.142328E+00   4.213315E+00   4.270712E+00   4.313082E+00   4.347945E+00   4.379222E+00   4.414593E+00   4.424917E+00   4.420125E+00   4.381979E+00   4.328656E+00   4.247743E+00   4.153018E+00   4.068400E+00   4.004927E+00   4.004010E+00   4.018879E+00   4.044875E+00   4.059585E+00   4.057985E+00   4.054759E+00   4.036818E+00   4.011701E+00   3.986657E+00   3.982286E+00
   3.911513E+00   3.831639E+00   3.749295E+00   3.665538E+00   3.598639E+00   3.527725E+00   3.482274E+00   3.448364E+00   3.426531E+00   3.389980E+00   3.342401E+00   3.261660E+00   3.174670E+00   3.070581E+00   2.974622E+00   2.897274E+00   2.853269E+00   2.845946E+00   2.866174E+00   2.912441E+00   2.976419E+00   3.079105E+00   3.215692E+00   3.387475E+00   3.576913E+00   3.793251E+00   4.037863E+00   4.276477E+00   4.495317E+00   4.657346E+00   4.768192E+00   4.801335E+00   4.762749E+00   4.652657E+00   4.500592E+00   4.293034E+00   4.082448E+00   3.863342E+00   3.680188E+00   3.528825E+00   3.416209E+00   3.325507E+00   3.259336E+00   3.194733E+00   3.127177E+00   3.063952E+00   3.039346E+00   3.014299E+00   3.012335E+00   3.011278E+00   3.004700E+00   2.979478E+00   2.953337E+00   2.897985E+00   2.834862E+00   2.772770E+00   2.717959E+00   2.691996E+00   2.709867E+00   2.779300E+00   2.893836E+00   3.038757E+00   3.197136E+00   3.348036E+00   3.465541E+00   3.537039E+00   3.565997E+00   3.555329E+00   3.505948E+00   3.430234E+00   3.324301E+00   3.223203E+00   3.130315E+00   3.063583E+00   3.021639E+00   3.001367E+00   3.009268E+00   3.034050E+00   3.075155E+00   3.111632E+00   3.131547E+00   3.131899E+00   3.117032E+00   3.074518E+00   3.034654E+00   2.993622E+00   2.965277E+00   2.958059E+00   2.984869E+00   3.067097E+00   3.196676E+00   3.362477E+00   3.524132E+00   3.668101E+00   3.738976E+00   3.748580E+00   3.707830E+00   3.629772E+00   3.533765E+00   3.403427E+00   3.255840E+00   3.101890E+00   2.953145E+00   2.817359E+00   2.714504E+00   2.633918E+00   2.576804E+00   2.543756E+00   2.525974E+00   2.512364E+00   2.502437E+00   2.501217E+00   2.520533E+00   2.552444E+00   2.595309E+00   2.671912E+00   2.769079E+00   2.892444E+00   3.055978E+00   3.236903E+00   3.429785E+00   3.652801E+00   3.878004E+00   4.097806E+00   4.299438E+00   4.472326E+00   4.633233E+00   4.738635E+00   4.800596E+00   4.799608E+00   4.754984E+00   4.666804E+00   4.541708E+00   4.403245E+00   4.262630E+00   4.145191E+00   4.047260E+00   4.002367E+00   3.998007E+00   4.043201E+00   4.128383E+00   4.227300E+00   4.359760E+00   4.515368E+00   4.711164E+00   4.934921E+00   5.205102E+00   5.455389E+00   5.643354E+00   5.717273E+00   5.675190E+00   5.512639E+00   5.265703E+00   4.981369E+00   4.677545E+00   4.377878E+00   4.084778E+00   3.801220E+00   3.529253E+00   3.281536E+00   3.065848E+00   2.875702E+00   2.743453E+00   2.652371E+00   2.600547E+00   2.586982E+00   2.617018E+00   2.692966E+00   2.816242E+00   2.983967E+00   3.191688E+00   3.408278E+00   3.631817E+00   3.835898E+00   4.016067E+00   4.145842E+00   4.243452E+00   4.309251E+00   4.361296E+00   4.399877E+00   4.422886E+00   4.430383E+00   4.437303E+00   4.415538E+00   4.374067E+00   4.306400E+00   4.231671E+00   4.167359E+00   4.107597E+00   4.083213E+00   4.095545E+00   4.140479E+00   4.191252E+00   4.206226E+00   4.196194E+00   4.158026E+00   4.116479E+00   4.075953E+00   4.039200E+00   4.009589E+00
   3.896454E+00   3.808191E+00   3.706827E+00   3.617319E+00   3.544269E+00   3.483554E+00   3.426554E+00   3.386435E+00   3.348642E+00   3.305056E+00   3.237747E+00   3.162143E+00   3.060472E+00   2.958671E+00   2.861075E+00   2.788190E+00   2.738033E+00   2.722114E+00   2.738878E+00   2.785553E+00   2.846982E+00   2.944189E+00   3.081185E+00   3.263776E+00   3.476299E+00   3.718124E+00   3.983525E+00   4.264817E+00   4.516637E+00   4.716466E+00   4.850515E+00   4.915888E+00   4.877939E+00   4.797071E+00   4.627445E+00   4.407920E+00   4.159715E+00   3.904625E+00   3.671474E+00   3.492390E+00   3.347875E+00   3.229132E+00   3.124794E+00   3.028526E+00   2.943967E+00   2.873292E+00   2.827395E+00   2.791682E+00   2.786861E+00   2.800359E+00   2.825183E+00   2.848142E+00   2.864377E+00   2.863573E+00   2.830275E+00   2.784892E+00   2.741663E+00   2.726138E+00   2.748906E+00   2.821602E+00   2.941262E+00   3.095660E+00   3.256324E+00   3.401612E+00   3.504758E+00   3.551435E+00   3.541321E+00   3.483493E+00   3.397316E+00   3.284084E+00   3.158383E+00   3.025378E+00   2.915011E+00   2.825520E+00   2.781884E+00   2.772711E+00   2.795909E+00   2.836383E+00   2.896159E+00   2.947983E+00   2.992638E+00   3.008604E+00   2.996301E+00   2.955542E+00   2.894553E+00   2.837327E+00   2.787079E+00   2.764672E+00   2.784268E+00   2.852217E+00   2.985169E+00   3.145765E+00   3.331818E+00   3.492223E+00   3.601036E+00   3.640561E+00   3.616548E+00   3.548644E+00   3.453673E+00   3.323609E+00   3.169092E+00   2.995776E+00   2.832861E+00   2.694891E+00   2.574136E+00   2.488074E+00   2.434200E+00   2.393789E+00   2.381186E+00   2.367156E+00   2.370749E+00   2.385293E+00   2.415997E+00   2.466230E+00   2.530024E+00   2.616295E+00   2.714460E+00   2.835591E+00   2.981929E+00   3.154988E+00   3.350208E+00   3.571313E+00   3.813380E+00   4.059168E+00   4.280733E+00   4.464268E+00   4.608922E+00   4.704159E+00   4.741691E+00   4.729101E+00   4.662369E+00   4.551816E+00   4.400318E+00   4.236424E+00   4.082726E+00   3.945040E+00   3.856897E+00   3.807767E+00   3.816764E+00   3.888108E+00   4.005597E+00   4.150402E+00   4.329547E+00   4.553890E+00   4.811631E+00   5.114688E+00   5.422369E+00   5.737359E+00   5.978807E+00   6.084777E+00   6.043849E+00   5.855770E+00   5.551165E+00   5.188587E+00   4.810415E+00   4.452147E+00   4.092917E+00   3.748912E+00   3.425423E+00   3.138892E+00   2.889757E+00   2.701039E+00   2.551162E+00   2.445598E+00   2.391971E+00   2.380697E+00   2.413169E+00   2.497914E+00   2.634364E+00   2.831459E+00   3.050158E+00   3.292060E+00   3.531985E+00   3.766515E+00   3.958033E+00   4.113061E+00   4.209272E+00   4.281516E+00   4.319119E+00   4.339300E+00   4.337300E+00   4.334822E+00   4.302907E+00   4.280777E+00   4.231324E+00   4.189300E+00   4.155053E+00   4.129523E+00   4.138543E+00   4.184990E+00   4.258607E+00   4.340692E+00   4.393794E+00   4.415425E+00   4.385911E+00   4.323203E+00   4.236947E+00   4.155994E+00   4.091950E+00   4.036527E+00
   3.901825E+00   3.809957E+00   3.713234E+00   3.630449E+00   3.558785E+00   3.493260E+00   3.438368E+00   3.386907E+00   3.350361E+00   3.289033E+00   3.216656E+00   3.121825E+00   3.023672E+00   2.922860E+00   2.831480E+00   2.753300E+00   2.701874E+00   2.678898E+00   2.699941E+00   2.742696E+00   2.817760E+00   2.926614E+00   3.056302E+00   3.230283E+00   3.438347E+00   3.675426E+00   3.932542E+00   4.187589E+00   4.435254E+00   4.641813E+00   4.792210E+00   4.872352E+00   4.908751E+00   4.864666E+00   4.746778E+00   4.554194E+00   4.324073E+00   4.030421E+00   3.759296E+00   3.508930E+00   3.314307E+00   3.156897E+00   3.022987E+00   2.904095E+00   2.800082E+00   2.721838E+00   2.671664E+00   2.639561E+00   2.637181E+00   2.670817E+00   2.739186E+00   2.823378E+00   2.910442E+00   2.960894E+00   2.976404E+00   2.960488E+00   2.945620E+00   2.944944E+00   2.982980E+00   3.057614E+00   3.184426E+00   3.341397E+00   3.498740E+00   3.627177E+00   3.703089E+00   3.705367E+00   3.643451E+00   3.535085E+00   3.394297E+00   3.237908E+00   3.074339E+00   2.924363E+00   2.788648E+00   2.691551E+00   2.642027E+00   2.636564E+00   2.665620E+00   2.729700E+00   2.800391E+00   2.866575E+00   2.918511E+00   2.931653E+00   2.906464E+00   2.851988E+00   2.782071E+00   2.705307E+00   2.637028E+00   2.599622E+00   2.599562E+00   2.654201E+00   2.770119E+00   2.936091E+00   3.119544E+00   3.298960E+00   3.442375E+00   3.518360E+00   3.534250E+00   3.508589E+00   3.444652E+00   3.340674E+00   3.192645E+00   3.013002E+00   2.849438E+00   2.706753E+00   2.596329E+00   2.518977E+00   2.464549E+00   2.428574E+00   2.404899E+00   2.407111E+00   2.422448E+00   2.448778E+00   2.486881E+00   2.553447E+00   2.621962E+00   2.698318E+00   2.789873E+00   2.883292E+00   3.000628E+00   3.141222E+00   3.320045E+00   3.524246E+00   3.753823E+00   3.991956E+00   4.188238E+00   4.355917E+00   4.461706E+00   4.500042E+00   4.505926E+00   4.485317E+00   4.419332E+00   4.310081E+00   4.155002E+00   4.002099E+00   3.840902E+00   3.702310E+00   3.601561E+00   3.566281E+00   3.585445E+00   3.675103E+00   3.812077E+00   4.004653E+00   4.233471E+00   4.506084E+00   4.817387E+00   5.152233E+00   5.489903E+00   5.837350E+00   6.113352E+00   6.268726E+00   6.251118E+00   6.081727E+00   5.758986E+00   5.355322E+00   4.927906E+00   4.504805E+00   4.099222E+00   3.720644E+00   3.368967E+00   3.066742E+00   2.811543E+00   2.601522E+00   2.445949E+00   2.332789E+00   2.271098E+00   2.255296E+00   2.288632E+00   2.376569E+00   2.523650E+00   2.715639E+00   2.945036E+00   3.190939E+00   3.443270E+00   3.688900E+00   3.913193E+00   4.079713E+00   4.192497E+00   4.246357E+00   4.279133E+00   4.268126E+00   4.247622E+00   4.206406E+00   4.172420E+00   4.134987E+00   4.107813E+00   4.081073E+00   4.088308E+00   4.122548E+00   4.193374E+00   4.300810E+00   4.423501E+00   4.540998E+00   4.622843E+00   4.633716E+00   4.597775E+00   4.522448E+00   4.414446E+00   4.300123E+00   4.189085E+00   4.089296E+00
   3.927757E+00   3.860589E+00   3.788581E+00   3.723146E+00   3.643658E+00   3.575006E+00   3.507107E+00   3.460076E+00   3.412533E+00   3.347625E+00   3.262932E+00   3.164198E+00   3.052949E+00   2.956265E+00   2.864927E+00   2.791448E+00   2.733395E+00   2.716314E+00   2.734780E+00   2.798022E+00   2.881731E+00   2.997719E+00   3.127942E+00   3.292987E+00   3.480332E+00   3.681135E+00   3.901370E+00   4.137996E+00   4.358311E+00   4.559128E+00   4.716071E+00   4.837117E+00   4.928902E+00   4.954606E+00   4.886720E+00   4.749376E+00   4.529270E+00   4.227242E+00   3.908526E+00   3.604505E+00   3.351318E+00   3.144935E+00   2.971174E+00   2.837449E+00   2.728705E+00   2.643224E+00   2.594278E+00   2.573070E+00   2.600286E+00   2.667540E+00   2.776661E+00   2.913897E+00   3.052006E+00   3.166376E+00   3.228331E+00   3.264092E+00   3.281368E+00   3.301251E+00   3.351030E+00   3.445694E+00   3.576588E+00   3.732354E+00   3.894419E+00   4.002737E+00   4.042762E+00   3.995606E+00   3.872978E+00   3.711266E+00   3.518169E+00   3.313603E+00   3.125633E+00   2.946700E+00   2.803637E+00   2.694790E+00   2.639266E+00   2.634522E+00   2.659889E+00   2.717081E+00   2.790233E+00   2.847848E+00   2.889995E+00   2.890692E+00   2.853105E+00   2.790199E+00   2.706978E+00   2.614118E+00   2.527002E+00   2.465777E+00   2.452763E+00   2.498313E+00   2.602187E+00   2.761271E+00   2.956272E+00   3.156648E+00   3.335451E+00   3.460964E+00   3.530729E+00   3.550637E+00   3.522359E+00   3.436816E+00   3.299609E+00   3.143992E+00   2.984565E+00   2.847859E+00   2.743936E+00   2.675618E+00   2.636332E+00   2.606390E+00   2.595064E+00   2.592539E+00   2.609641E+00   2.639684E+00   2.691610E+00   2.751032E+00   2.813223E+00   2.870875E+00   2.921534E+00   2.981168E+00   3.060755E+00   3.169610E+00   3.313688E+00   3.483254E+00   3.679750E+00   3.872316E+00   4.036863E+00   4.143490E+00   4.185886E+00   4.176720E+00   4.163873E+00   4.130322E+00   4.092424E+00   4.018201E+00   3.917801E+00   3.791697E+00   3.648541E+00   3.509539E+00   3.405261E+00   3.358611E+00   3.389304E+00   3.480258E+00   3.632797E+00   3.854656E+00   4.108394E+00   4.401414E+00   4.727619E+00   5.082054E+00   5.440543E+00   5.796997E+00   6.092278E+00   6.274801E+00   6.310272E+00   6.157991E+00   5.832181E+00   5.429803E+00   4.998621E+00   4.558906E+00   4.133480E+00   3.732234E+00   3.385793E+00   3.081193E+00   2.821729E+00   2.606920E+00   2.437621E+00   2.311727E+00   2.234623E+00   2.206763E+00   2.236005E+00   2.315303E+00   2.456192E+00   2.644274E+00   2.873536E+00   3.128012E+00   3.389086E+00   3.644221E+00   3.860861E+00   4.029596E+00   4.142322E+00   4.208731E+00   4.219788E+00   4.215608E+00   4.167595E+00   4.130864E+00   4.083531E+00   4.053141E+00   4.027088E+00   4.033987E+00   4.065416E+00   4.130060E+00   4.237373E+00   4.388201E+00   4.552735E+00   4.687431E+00   4.764129E+00   4.776138E+00   4.729161E+00   4.654534E+00   4.558993E+00   4.432443E+00   4.291452E+00   4.145054E+00
   3.979202E+00   3.956023E+00   3.916008E+00   3.846056E+00   3.787153E+00   3.702186E+00   3.640318E+00   3.585163E+00   3.538482E+00   3.469754E+00   3.374518E+00   3.260601E+00   3.136917E+00   3.032459E+00   2.942850E+00   2.871489E+00   2.819503E+00   2.790741E+00   2.820025E+00   2.883502E+00   2.984453E+00   3.110458E+00   3.237093E+00   3.391585E+00   3.556901E+00   3.740114E+00   3.941393E+00   4.130643E+00   4.330893E+00   4.528771E+00   4.721976E+00   4.876027E+00   4.993767E+00   5.067984E+00   5.074566E+00   4.980391E+00   4.779140E+00   4.475769E+00   4.124146E+00   3.773882E+00   3.476513E+00   3.219613E+00   3.016583E+00   2.855496E+00   2.731972E+00   2.651125E+00   2.602664E+00   2.606879E+00   2.659386E+00   2.754177E+00   2.902022E+00   3.083712E+00   3.264761E+00   3.425371E+00   3.535606E+00   3.600573E+00   3.640579E+00   3.670514E+00   3.741769E+00   3.854884E+00   4.003085E+00   4.173639E+00   4.335857E+00   4.434581E+00   4.437731E+00   4.351409E+00   4.188890E+00   3.980074E+00   3.749793E+00   3.520641E+00   3.296019E+00   3.104923E+00   2.944286E+00   2.833207E+00   2.760440E+00   2.730895E+00   2.735886E+00   2.772390E+00   2.824368E+00   2.867206E+00   2.880692E+00   2.862976E+00   2.808642E+00   2.741940E+00   2.651347E+00   2.550881E+00   2.460163E+00   2.394104E+00   2.382377E+00   2.432619E+00   2.542961E+00   2.699331E+00   2.900830E+00   3.110604E+00   3.316439E+00   3.494307E+00   3.620835E+00   3.674103E+00   3.670581E+00   3.599540E+00   3.483902E+00   3.343992E+00   3.200344E+00   3.072121E+00   2.982186E+00   2.926278E+00   2.896070E+00   2.879734E+00   2.874277E+00   2.873534E+00   2.885743E+00   2.914725E+00   2.965669E+00   3.022834E+00   3.066618E+00   3.108691E+00   3.122417E+00   3.139240E+00   3.170773E+00   3.221296E+00   3.308728E+00   3.421194E+00   3.553653E+00   3.683432E+00   3.774878E+00   3.814653E+00   3.803012E+00   3.771901E+00   3.744536E+00   3.737225E+00   3.735989E+00   3.736530E+00   3.699586E+00   3.620557E+00   3.521579E+00   3.398542E+00   3.292095E+00   3.229953E+00   3.250030E+00   3.343879E+00   3.513162E+00   3.754127E+00   4.030865E+00   4.333154E+00   4.646070E+00   4.978829E+00   5.325852E+00   5.670354E+00   5.978166E+00   6.189955E+00   6.239624E+00   6.110188E+00   5.834563E+00   5.472583E+00   5.047318E+00   4.617491E+00   4.185482E+00   3.798347E+00   3.451627E+00   3.153626E+00   2.899882E+00   2.673461E+00   2.492684E+00   2.357517E+00   2.272932E+00   2.236737E+00   2.258341E+00   2.327445E+00   2.455719E+00   2.632194E+00   2.854119E+00   3.111085E+00   3.385825E+00   3.642824E+00   3.848364E+00   3.999424E+00   4.091648E+00   4.131079E+00   4.142069E+00   4.115668E+00   4.074087E+00   4.032025E+00   3.994947E+00   3.959855E+00   3.949450E+00   3.954954E+00   4.000447E+00   4.075889E+00   4.202803E+00   4.372075E+00   4.536996E+00   4.675488E+00   4.759033E+00   4.768149E+00   4.728023E+00   4.655861E+00   4.566820E+00   4.446519E+00   4.311275E+00   4.159011E+00
   4.043863E+00   4.084091E+00   4.071331E+00   4.037170E+00   3.960794E+00   3.884974E+00   3.813507E+00   3.759376E+00   3.692901E+00   3.603979E+00   3.479933E+00   3.350025E+00   3.221188E+00   3.113952E+00   3.027493E+00   2.968318E+00   2.913460E+00   2.900777E+00   2.924215E+00   2.988966E+00   3.088103E+00   3.214393E+00   3.342066E+00   3.478704E+00   3.627335E+00   3.797511E+00   3.965857E+00   4.147830E+00   4.341926E+00   4.551867E+00   4.756383E+00   4.954730E+00   5.105225E+00   5.217642E+00   5.243959E+00   5.180303E+00   5.009336E+00   4.736620E+00   4.380917E+00   4.004171E+00   3.652117E+00   3.364133E+00   3.127118E+00   2.945520E+00   2.820097E+00   2.736344E+00   2.707602E+00   2.717374E+00   2.787854E+00   2.909585E+00   3.080977E+00   3.272843E+00   3.458585E+00   3.628750E+00   3.748281E+00   3.826412E+00   3.874544E+00   3.941106E+00   4.036097E+00   4.175571E+00   4.366570E+00   4.565915E+00   4.748937E+00   4.855985E+00   4.847576E+00   4.724075E+00   4.530378E+00   4.301583E+00   4.057229E+00   3.805983E+00   3.578260E+00   3.379058E+00   3.202187E+00   3.066054E+00   2.968412E+00   2.906130E+00   2.886426E+00   2.880944E+00   2.896511E+00   2.905119E+00   2.900168E+00   2.859287E+00   2.798718E+00   2.724267E+00   2.643064E+00   2.555303E+00   2.475927E+00   2.430863E+00   2.431638E+00   2.497225E+00   2.613877E+00   2.782293E+00   2.976183E+00   3.193622E+00   3.412428E+00   3.608254E+00   3.763541E+00   3.838110E+00   3.843010E+00   3.784827E+00   3.672815E+00   3.547025E+00   3.416145E+00   3.298978E+00   3.212759E+00   3.164942E+00   3.149212E+00   3.144034E+00   3.148335E+00   3.160258E+00   3.179250E+00   3.207905E+00   3.260553E+00   3.311290E+00   3.340759E+00   3.346130E+00   3.324790E+00   3.288085E+00   3.258519E+00   3.245193E+00   3.259978E+00   3.298213E+00   3.354629E+00   3.410355E+00   3.442598E+00   3.444556E+00   3.415502E+00   3.382570E+00   3.375380E+00   3.390549E+00   3.445193E+00   3.503093E+00   3.535890E+00   3.519397E+00   3.462268E+00   3.369897E+00   3.284728E+00   3.228186E+00   3.243312E+00   3.322824E+00   3.491352E+00   3.742047E+00   4.034734E+00   4.339169E+00   4.636844E+00   4.932141E+00   5.240209E+00   5.557344E+00   5.847034E+00   6.059850E+00   6.143441E+00   6.063135E+00   5.840324E+00   5.501977E+00   5.102811E+00   4.675642E+00   4.269938E+00   3.886327E+00   3.560416E+00   3.278367E+00   3.028681E+00   2.794030E+00   2.601294E+00   2.452760E+00   2.352432E+00   2.309407E+00   2.314362E+00   2.382753E+00   2.499898E+00   2.669131E+00   2.872004E+00   3.122702E+00   3.384964E+00   3.627156E+00   3.814523E+00   3.943448E+00   4.011312E+00   4.035069E+00   4.031204E+00   3.989617E+00   3.960295E+00   3.940522E+00   3.914467E+00   3.892865E+00   3.875352E+00   3.878033E+00   3.913649E+00   3.978678E+00   4.088180E+00   4.229069E+00   4.381650E+00   4.500822E+00   4.581463E+00   4.594106E+00   4.575804E+00   4.527557E+00   4.442750E+00   4.360792E+00   4.255094E+00   4.139242E+00
   4.118090E+00   4.210635E+00   4.262492E+00   4.249787E+00   4.208253E+00   4.124890E+00   4.064921E+00   3.997124E+00   3.908980E+00   3.779335E+00   3.618475E+00   3.458695E+00   3.315068E+00   3.196422E+00   3.115425E+00   3.067912E+00   3.035913E+00   3.024191E+00   3.037342E+00   3.090935E+00   3.170457E+00   3.276207E+00   3.403586E+00   3.532020E+00   3.672459E+00   3.816602E+00   3.980193E+00   4.159723E+00   4.383577E+00   4.596467E+00   4.813864E+00   5.005938E+00   5.181527E+00   5.289354E+00   5.335945E+00   5.285249E+00   5.156239E+00   4.925163E+00   4.611753E+00   4.239584E+00   3.877834E+00   3.554632E+00   3.295530E+00   3.101611E+00   2.960304E+00   2.877766E+00   2.847496E+00   2.877277E+00   2.958326E+00   3.078907E+00   3.238828E+00   3.414280E+00   3.595922E+00   3.736774E+00   3.842991E+00   3.910107E+00   3.973401E+00   4.057990E+00   4.187366E+00   4.376100E+00   4.611462E+00   4.858721E+00   5.051003E+00   5.164392E+00   5.161709E+00   5.043998E+00   4.842822E+00   4.610348E+00   4.366126E+00   4.127876E+00   3.917094E+00   3.720475E+00   3.535272E+00   3.382365E+00   3.238684E+00   3.138414E+00   3.068359E+00   3.020343E+00   2.986771E+00   2.955883E+00   2.921063E+00   2.867474E+00   2.804843E+00   2.742422E+00   2.669684E+00   2.617022E+00   2.576378E+00   2.566262E+00   2.601660E+00   2.682245E+00   2.829329E+00   3.011145E+00   3.223504E+00   3.450470E+00   3.653971E+00   3.813356E+00   3.943453E+00   4.020790E+00   4.009396E+00   3.952636E+00   3.841934E+00   3.726675E+00   3.610438E+00   3.506709E+00   3.426142E+00   3.373696E+00   3.343157E+00   3.344276E+00   3.354742E+00   3.380304E+00   3.413802E+00   3.449887E+00   3.492722E+00   3.513492E+00   3.511555E+00   3.486430E+00   3.433149E+00   3.358718E+00   3.270621E+00   3.190234E+00   3.133030E+00   3.100642E+00   3.091675E+00   3.086648E+00   3.077777E+00   3.064793E+00   3.046587E+00   3.046894E+00   3.070172E+00   3.129341E+00   3.220063E+00   3.330000E+00   3.413480E+00   3.460917E+00   3.454180E+00   3.415964E+00   3.354774E+00   3.319883E+00   3.334061E+00   3.425301E+00   3.583715E+00   3.818425E+00   4.091352E+00   4.376516E+00   4.643017E+00   4.915338E+00   5.189328E+00   5.481978E+00   5.739370E+00   5.936998E+00   6.021062E+00   5.969452E+00   5.783514E+00   5.506938E+00   5.158675E+00   4.774282E+00   4.399062E+00   4.037485E+00   3.708179E+00   3.425606E+00   3.169624E+00   2.936616E+00   2.729912E+00   2.577065E+00   2.473097E+00   2.423278E+00   2.431015E+00   2.485644E+00   2.602041E+00   2.752158E+00   2.948928E+00   3.172896E+00   3.408976E+00   3.626662E+00   3.803753E+00   3.900769E+00   3.954952E+00   3.968246E+00   3.952937E+00   3.917357E+00   3.892695E+00   3.872434E+00   3.861978E+00   3.835962E+00   3.817798E+00   3.802293E+00   3.815712E+00   3.857264E+00   3.933892E+00   4.037736E+00   4.145195E+00   4.243925E+00   4.295427E+00   4.320780E+00   4.320862E+00   4.298301E+00   4.258401E+00   4.217269E+00   4.165457E+00   4.084840E+00