# DIS package for  MODFLOW-2005, generated by Flopy.
         1       200       400         1         4         2
  0
CONSTANT    8.400000E+01                           #delr                          
CONSTANT    8.200000E+01                           #delc                          
INTERNAL               1 (400E15.6) -1 #model_top                     
  -4.900000E+02  -4.900000E+02  -4.900000E+02  -4.900000E+02  -4.900000E+02  -4.900000E+02  -4.900000E+02  -4.900000E+02  -4.900000E+02  -4.900000E+02  -4.900000E+02  -4.900000E+02  -4.900000E+02  -4.900000E+02  -4.900000E+02  -4.900000E+02  -4.900000E+02  -4.900000E+02  -4.900000E+02  -4.900000E+02  -4.900000E+02  -4.900000E+02  -4.900000E+02  -4.900000E+02  -4.900000E+02  -4.900000E+02  -4.900000E+02  -4.900000E+02  -4.900000E+02  -4.900000E+02  -4.900000E+02  -4.900000E+02  -4.900000E+02  -4.900000E+02  -4.900000E+02  -4.900000E+02  -4.900000E+02  -4.900000E+02  -4.900000E+02  -4.900000E+02  -4.900000E+02  -4.900000E+02  -4.900000E+02  -4.900000E+02  -4.900000E+02  -4.900000E+02  -4.900000E+02  -4.900000E+02  -4.900000E+02  -4.900000E+02  -4.900000E+02  -4.900000E+02  -4.900000E+02  -4.900000E+02  -4.900000E+02  -4.900000E+02  -4.900000E+02  -4.900000E+02  -4.900000E+02  -4.900000E+02  -4.900000E+02  -4.900000E+02  -4.900000E+02  -4.900000E+02  -4.900000E+02  -4.900000E+02  -4.900000E+02  -4.900000E+02  -4.900000E+02  -4.900000E+02  -4.900000E+02  -4.900000E+02  -4.900000E+02  -4.900000E+02  -4.900000E+02  -4.900000E+02  -4.900000E+02  -4.900000E+02  -4.900000E+02  -4.900000E+02  -4.900000E+02  -4.900000E+02  -4.900000E+02  -4.900000E+02  -4.900000E+02  -4.900000E+02  -4.900000E+02  -4.900000E+02  -4.900000E+02  -4.900000E+02  -4.900000E+02  -4.900000E+02  -4.900000E+02  -4.900000E+02  -4.900000E+02  -4.900000E+02  -4.900000E+02  -4.900000E+02  -4.900000E+02  -4.900000E+02  -4.900000E+02  -4.900000E+02  -4.900000E+02  -4.900000E+02  -4.900000E+02  -4.900000E+02  -4.900000E+02  -4.900000E+02  -4.900000E+02  -4.900000E+02  -4.900000E+02  -4.900000E+02  -4.900000E+02  -4.900000E+02  -4.900000E+02  -4.900000E+02  -4.900000E+02  -4.900000E+02  -4.900000E+02  -4.900000E+02  -4.900000E+02  -4.900000E+02  -4.900000E+02  -4.900000E+02  -4.900000E+02  -4.900000E+02  -4.900000E+02  -4.900000E+02  -4.900000E+02  -4.900000E+02  -4.900000E+02  -4.900000E+02  -4.900000E+02  -4.900000E+02  -4.900000E+02  -4.900000E+02  -4.900000E+02  -4.900000E+02  -4.900000E+02  -4.900000E+02  -4.900000E+02  -4.900000E+02  -4.900000E+02  -4.900000E+02  -4.900000E+02  -4.900000E+02  -4.900000E+02  -4.900000E+02  -4.900000E+02  -4.900000E+02  -4.900000E+02  -4.900000E+02  -4.900000E+02  -4.900000E+02  -4.900000E+02  -4.900000E+02  -4.900000E+02  -4.900000E+02  -4.900000E+02  -4.900000E+02  -4.900000E+02  -4.900000E+02  -4.900000E+02  -4.900000E+02  -4.900000E+02  -4.900000E+02  -4.900000E+02  -4.900000E+02  -4.960473E+02  -4.285038E+02  -3.774164E+02  -3.200588E+02  -2.000057E+02  -1.307769E+02  -9.545035E+01  -8.606116E+01  -8.218940E+01  -7.991412E+01  -8.049540E+01  -8.065266E+01  -7.798441E+01  -7.605547E+01  -7.385677E+01  -6.970293E+01  -6.273369E+01  -6.099275E+01  -5.961309E+01  -5.932873E+01  -5.794853E+01  -5.742424E+01  -5.690868E+01  -5.543030E+01  -5.352351E+01  -5.242962E+01  -5.127547E+01  -5.059649E+01  -5.020974E+01  -4.895915E+01  -4.833758E+01  -4.721311E+01  -4.593556E+01  -4.428427E+01  -3.936204E+01  -3.439281E+01  -3.189424E+01  -3.228614E+01  -3.269896E+01  -3.055189E+01  -3.168489E+01  -3.430254E+01  -3.969027E+01  -4.221676E+01  -4.336544E+01  -4.541292E+01  -4.697345E+01  -4.860790E+01  -4.982348E+01  -5.081839E+01  -5.152885E+01  -5.239499E+01  -5.367400E+01  -5.514555E+01  -5.558644E+01  -5.587393E+01  -5.583463E+01  -5.575392E+01  -5.536401E+01  -5.519005E+01  -5.468388E+01  -5.526538E+01  -5.519967E+01  -5.479311E+01  -5.268168E+01  -5.003777E+01  -4.745179E+01  -4.518317E+01  -4.348326E+01  -4.076493E+01  -3.743635E+01  -3.054820E+01  -1.871527E+01  -1.434503E+01  -2.534382E+01  -4.003708E+01  -4.466380E+01  -4.833380E+01  -5.004818E+01  -5.072997E+01  -5.131094E+01  -5.188541E+01  -5.266560E+01  -5.323352E+01  -5.399704E+01  -5.474949E+01  -5.507840E+01  -5.497414E+01  -5.486916E+01  -5.422802E+01  -5.308377E+01  -5.261756E+01  -5.232320E+01  -5.189506E+01  -5.103298E+01  -5.030023E+01  -4.988609E+01  -4.969800E+01  -4.969478E+01  -4.964299E+01  -4.931003E+01  -4.906948E+01  -4.862618E+01  -4.893095E+01  -4.959463E+01  -4.977277E+01  -4.998870E+01  -5.031381E+01  -5.114752E+01  -5.133636E+01  -5.249548E+01  -5.284078E+01  -5.396515E+01  -5.683434E+01  -5.707169E+01  -5.775806E+01  -5.947230E+01  -6.183246E+01  -6.386029E+01  -6.665388E+01  -6.956101E+01  -6.832151E+01  -6.387668E+01  -6.902102E+01  -7.541134E+01  -7.683913E+01  -7.796155E+01  -8.038186E+01  -7.896372E+01  -7.163272E+01  -7.147421E+01  -6.899854E+01  -6.546197E+01  -6.359152E+01  -6.674322E+01  -7.124548E+01  -7.553022E+01  -7.748940E+01  -7.957710E+01  -8.363304E+01  -8.368070E+01  -8.262377E+01  -8.212479E+01  -8.013175E+01  -8.091561E+01  -8.091917E+01  -8.188007E+01  -8.413837E+01  -8.631575E+01  -8.716264E+01  -8.841721E+01  -8.841985E+01  -8.920431E+01  -8.988570E+01  -7.931799E+01  -9.143640E+01  -9.135355E+01  -9.090697E+01  -9.098729E+01  -8.874384E+01  -8.872249E+01  -9.029733E+01  -8.994707E+01  -9.030230E+01  -9.002655E+01  -8.148254E+01  -8.807388E+01  -8.944485E+01  -8.904234E+01  -8.898558E+01  -8.857513E+01  -8.713408E+01  -8.242132E+01  -6.580175E+01  -6.204314E+01  -6.117590E+01  -6.319606E+01  -6.349164E+01  -6.495375E+01  -6.578172E+01  -6.449307E+01  -6.604969E+01  -6.633884E+01  -6.531686E+01  -6.455952E+01  -6.567892E+01  -6.548884E+01  -6.682941E+01  -6.652183E+01  -6.767820E+01  -6.561478E+01  -6.711827E+01  -6.806126E+01  -6.451524E+01  -6.501746E+01  -6.973425E+01  -6.760405E+01  -6.315032E+01  -6.402473E+01  -6.414700E+01  -6.451852E+01  -6.655668E+01  -6.804675E+01  -6.490061E+01  -6.345123E+01  -6.623890E+01  -7.106188E+01  -7.647437E+01  -8.280008E+01  -8.555118E+01  -8.365405E+01  -8.248331E+01  -7.773104E+01  -7.008718E+01  -6.623335E+01  -6.478656E+01  -6.322739E+01  -6.324754E+01  -6.297502E+01  -6.327510E+01  -6.455015E+01  -7.657143E+01  -8.973510E+01  -9.181487E+01  -9.292296E+01  -9.230972E+01  -9.187041E+01  -9.032939E+01  -9.083015E+01  -9.120763E+01  -9.241273E+01  -9.375537E+01
  -4.900000E+02  -4.900000E+02  -4.900000E+02  -4.900000E+02  -4.900000E+02  -4.900000E+02  -4.900000E+02  -4.900000E+02  -4.900000E+02  -4.900000E+02  -4.900000E+02  -4.900000E+02  -4.900000E+02  -4.900000E+02  -4.900000E+02  -4.900000E+02  -4.900000E+02  -4.900000E+02  -4.900000E+02  -4.900000E+02  -4.900000E+02  -4.900000E+02  -4.900000E+02  -4.900000E+02  -4.900000E+02  -4.900000E+02  -4.900000E+02  -4.900000E+02  -4.900000E+02  -4.900000E+02  -4.900000E+02  -4.900000E+02  -4.900000E+02  -4.900000E+02  -4.900000E+02  -4.900000E+02  -4.900000E+02  -4.900000E+02  -4.900000E+02  -4.900000E+02  -4.900000E+02  -4.900000E+02  -4.900000E+02  -4.900000E+02  -4.900000E+02  -4.900000E+02  -4.900000E+02  -4.900000E+02  -4.900000E+02  -4.900000E+02  -4.900000E+02  -4.900000E+02  -4.900000E+02  -4.900000E+02  -4.900000E+02  -4.900000E+02  -4.900000E+02  -4.900000E+02  -4.900000E+02  -4.900000E+02  -4.900000E+02  -4.900000E+02  -4.900000E+02  -4.900000E+02  -4.900000E+02  -4.900000E+02  -4.900000E+02  -4.900000E+02  -4.900000E+02  -4.900000E+02  -4.900000E+02  -4.900000E+02  -4.900000E+02  -4.900000E+02  -4.900000E+02  -4.900000E+02  -4.900000E+02  -4.900000E+02  -4.900000E+02  -4.900000E+02  -4.900000E+02  -4.900000E+02  -4.900000E+02  -4.900000E+02  -4.900000E+02  -4.900000E+02  -4.900000E+02  -4.900000E+02  -4.900000E+02  -4.900000E+02  -4.900000E+02  -4.900000E+02  -4.900000E+02  -4.900000E+02  -4.900000E+02  -4.900000E+02  -4.900000E+02  -4.900000E+02  -4.900000E+02  -4.900000E+02  -4.900000E+02  -4.900000E+02  -4.900000E+02  -4.900000E+02  -4.900000E+02  -4.900000E+02  -4.900000E+02  -4.900000E+02  -4.900000E+02  -4.900000E+02  -4.900000E+02  -4.900000E+02  -4.900000E+02  -4.900000E+02  -4.900000E+02  -4.900000E+02  -4.900000E+02  -4.900000E+02  -4.900000E+02  -4.900000E+02  -4.900000E+02  -4.900000E+02  -4.900000E+02  -4.900000E+02  -4.900000E+02  -4.900000E+02  -4.900000E+02  -4.900000E+02  -4.900000E+02  -4.900000E+02  -4.900000E+02  -4.900000E+02  -4.900000E+02  -4.900000E+02  -4.900000E+02  -4.900000E+02  -4.900000E+02  -4.900000E+02  -4.900000E+02  -4.900000E+02  -4.900000E+02  -4.900000E+02  -4.900000E+02  -4.900000E+02  -4.900000E+02  -4.900000E+02  -4.900000E+02  -4.900000E+02  -4.900000E+02  -4.900000E+02  -4.900000E+02  -4.900000E+02  -4.900000E+02  -4.900000E+02  -4.900000E+02  -4.900000E+02  -4.900000E+02  -4.900000E+02  -4.900000E+02  -4.900000E+02  -4.900000E+02  -4.900000E+02  -4.900000E+02  -4.900000E+02  -4.900000E+02  -4.900000E+02  -4.900000E+02  -4.900000E+02  -4.586102E+02  -4.060501E+02  -3.582789E+02  -2.613066E+02  -1.443717E+02  -1.111212E+02  -9.133150E+01  -8.473730E+01  -8.116718E+01  -7.970833E+01  -7.983985E+01  -7.841536E+01  -7.564323E+01  -7.341275E+01  -6.970552E+01  -6.404115E+01  -6.078077E+01  -6.092287E+01  -6.071840E+01  -5.828024E+01  -5.776804E+01  -5.821959E+01  -5.657937E+01  -5.497593E+01  -5.319639E+01  -5.195609E+01  -5.090533E+01  -5.026877E+01  -5.026969E+01  -4.983952E+01  -4.937627E+01  -4.844108E+01  -4.734362E+01  -4.600484E+01  -4.411633E+01  -4.164046E+01  -3.995655E+01  -3.926545E+01  -3.824746E+01  -3.769593E+01  -3.819329E+01  -4.056709E+01  -4.127714E+01  -4.180222E+01  -4.462968E+01  -4.615487E+01  -4.765683E+01  -4.871036E+01  -4.974626E+01  -5.072512E+01  -5.170610E+01  -5.222978E+01  -5.379523E+01  -5.472824E+01  -5.487155E+01  -5.533684E+01  -5.551725E+01  -5.537789E+01  -5.548384E+01  -5.560846E+01  -5.549878E+01  -5.583544E+01  -5.557439E+01  -5.319755E+01  -5.022286E+01  -4.733081E+01  -4.530881E+01  -4.350910E+01  -4.128651E+01  -3.910069E+01  -3.639762E+01  -3.152467E+01  -1.714711E+01   1.490218E+00  -2.004666E+01  -3.705012E+01  -4.283735E+01  -4.758397E+01  -5.061786E+01  -5.210092E+01  -5.144030E+01  -5.193759E+01  -5.286526E+01  -5.368534E+01  -5.456607E+01  -5.502728E+01  -5.566164E+01  -5.565128E+01  -5.532687E+01  -5.435323E+01  -5.351105E+01  -5.285868E+01  -5.281751E+01  -5.231862E+01  -5.171871E+01  -5.124628E+01  -5.098230E+01  -5.077089E+01  -5.077043E+01  -5.072548E+01  -5.022106E+01  -4.947181E+01  -4.879443E+01  -4.873862E+01  -4.883804E+01  -4.943471E+01  -5.061523E+01  -5.012784E+01  -5.034438E+01  -5.140012E+01  -5.156363E+01  -5.153124E+01  -5.246801E+01  -5.404286E+01  -5.520777E+01  -5.816924E+01  -6.018408E+01  -5.986369E+01  -6.156160E+01  -6.504276E+01  -6.761953E+01  -6.696142E+01  -6.390340E+01  -6.821070E+01  -7.558189E+01  -7.676235E+01  -7.834151E+01  -7.856359E+01  -7.944999E+01  -7.295818E+01  -7.305014E+01  -6.774626E+01  -6.719614E+01  -7.218648E+01  -7.638419E+01  -8.189272E+01  -8.280210E+01  -8.044577E+01  -8.103027E+01  -8.137033E+01  -7.934464E+01  -8.318081E+01  -8.400124E+01  -8.089015E+01  -8.177757E+01  -8.081450E+01  -8.055389E+01  -8.186063E+01  -8.448567E+01  -8.368903E+01  -8.504371E+01  -8.688158E+01  -8.753882E+01  -8.877273E+01  -8.885568E+01  -8.889291E+01  -9.054323E+01  -9.098350E+01  -8.948691E+01  -8.829607E+01  -9.148125E+01  -9.103269E+01  -9.040534E+01  -9.002956E+01  -9.116416E+01  -9.211423E+01  -9.097301E+01  -8.519386E+01  -8.795496E+01  -8.477490E+01  -9.154663E+01  -9.055480E+01  -8.289017E+01  -6.535773E+01  -6.175506E+01  -6.252504E+01  -6.316222E+01  -6.352702E+01  -6.334242E+01  -6.461372E+01  -6.409454E+01  -6.472152E+01  -6.296859E+01  -5.869001E+01  -5.935949E+01  -6.295177E+01  -6.562393E+01  -6.626745E+01  -6.589352E+01  -6.884316E+01  -6.971908E+01  -6.830978E+01  -7.270286E+01  -7.154317E+01  -7.042204E+01  -6.896141E+01  -6.373380E+01  -6.050656E+01  -6.187998E+01  -6.358212E+01  -6.426836E+01  -6.409591E+01  -6.413058E+01  -6.336106E+01  -6.383295E+01  -6.418324E+01  -6.524052E+01  -6.938653E+01  -7.701691E+01  -8.055810E+01  -7.800974E+01  -7.887749E+01  -7.876409E+01  -7.599848E+01  -7.196175E+01  -6.890715E+01  -6.645731E+01  -6.532975E+01  -6.409081E+01  -6.401893E+01  -6.791994E+01  -8.669751E+01  -9.142580E+01  -9.158543E+01  -9.199735E+01  -9.272618E+01  -9.177791E+01  -8.947356E+01  -8.611471E+01  -8.500159E+01  -9.107027E+01  -9.278286E+01
  -4.900000E+02  -4.900000E+02  -4.900000E+02  -4.900000E+02  -4.900000E+02  -4.900000E+02  -4.900000E+02  -4.900000E+02  -4.900000E+02  -4.900000E+02  -4.900000E+02  -4.900000E+02  -4.900000E+02  -4.900000E+02  -4.900000E+02  -4.900000E+02  -4.900000E+02  -4.900000E+02  -4.900000E+02  -4.900000E+02  -4.900000E+02  -4.900000E+02  -4.900000E+02  -4.900000E+02  -4.900000E+02  -4.900000E+02  -4.900000E+02  -4.900000E+02  -4.900000E+02  -4.900000E+02  -4.900000E+02  -4.900000E+02  -4.900000E+02  -4.900000E+02  -4.900000E+02  -4.900000E+02  -4.900000E+02  -4.900000E+02  -4.900000E+02  -4.900000E+02  -4.900000E+02  -4.900000E+02  -4.900000E+02  -4.900000E+02  -4.900000E+02  -4.900000E+02  -4.900000E+02  -4.900000E+02  -4.900000E+02  -4.900000E+02  -4.900000E+02  -4.900000E+02  -4.900000E+02  -4.900000E+02  -4.900000E+02  -4.900000E+02  -4.900000E+02  -4.900000E+02  -4.900000E+02  -4.900000E+02  -4.900000E+02  -4.900000E+02  -4.900000E+02  -4.900000E+02  -4.900000E+02  -4.900000E+02  -4.900000E+02  -4.900000E+02  -4.900000E+02  -4.900000E+02  -4.900000E+02  -4.900000E+02  -4.900000E+02  -4.900000E+02  -4.900000E+02  -4.900000E+02  -4.900000E+02  -4.900000E+02  -4.900000E+02  -4.900000E+02  -4.900000E+02  -4.900000E+02  -4.900000E+02  -4.900000E+02  -4.900000E+02  -4.900000E+02  -4.900000E+02  -4.900000E+02  -4.900000E+02  -4.900000E+02  -4.900000E+02  -4.900000E+02  -4.900000E+02  -4.900000E+02  -4.900000E+02  -4.900000E+02  -4.900000E+02  -4.900000E+02  -4.900000E+02  -4.900000E+02  -4.900000E+02  -4.900000E+02  -4.900000E+02  -4.900000E+02  -4.900000E+02  -4.900000E+02  -4.900000E+02  -4.900000E+02  -4.900000E+02  -4.900000E+02  -4.900000E+02  -4.900000E+02  -4.900000E+02  -4.900000E+02  -4.900000E+02  -4.900000E+02  -4.900000E+02  -4.900000E+02  -4.900000E+02  -4.900000E+02  -4.900000E+02  -4.900000E+02  -4.900000E+02  -4.900000E+02  -4.900000E+02  -4.900000E+02  -4.900000E+02  -4.900000E+02  -4.900000E+02  -4.900000E+02  -4.900000E+02  -4.900000E+02  -4.900000E+02  -4.900000E+02  -4.900000E+02  -4.900000E+02  -4.900000E+02  -4.900000E+02  -4.900000E+02  -4.900000E+02  -4.900000E+02  -4.900000E+02  -4.900000E+02  -4.900000E+02  -4.900000E+02  -4.900000E+02  -4.900000E+02  -4.900000E+02  -4.900000E+02  -4.900000E+02  -4.900000E+02  -4.900000E+02  -4.900000E+02  -4.900000E+02  -4.900000E+02  -4.900000E+02  -4.900000E+02  -4.900000E+02  -4.900000E+02  -4.900000E+02  -4.900000E+02  -4.900000E+02  -4.900000E+02  -4.900000E+02  -4.900000E+02  -4.900000E+02  -4.950667E+02  -4.808416E+02  -4.399215E+02  -3.789549E+02  -3.203712E+02  -2.321880E+02  -1.260850E+02  -9.869103E+01  -9.181531E+01  -8.372474E+01  -8.022092E+01  -7.946523E+01  -7.864526E+01  -7.604514E+01  -7.321696E+01  -6.965263E+01  -6.346523E+01  -6.124451E+01  -6.087374E+01  -5.986451E+01  -5.908187E+01  -5.709348E+01  -5.753186E+01  -5.815272E+01  -5.697330E+01  -5.469825E+01  -5.261522E+01  -5.176509E+01  -5.102563E+01  -5.045030E+01  -5.065112E+01  -5.021258E+01  -4.946632E+01  -4.888251E+01  -4.799935E+01  -4.669286E+01  -4.497273E+01  -4.349955E+01  -4.218988E+01  -4.175968E+01  -4.159490E+01  -4.203780E+01  -4.276260E+01  -4.309321E+01  -4.392270E+01  -4.530139E+01  -4.607018E+01  -4.691067E+01  -4.785277E+01  -4.902569E+01  -5.023293E+01  -5.125967E+01  -5.191582E+01  -5.211055E+01  -5.375196E+01  -5.399915E+01  -5.458836E+01  -5.554005E+01  -5.509919E+01  -5.542617E+01  -5.491801E+01  -5.582407E+01  -5.575848E+01  -5.550945E+01  -5.401025E+01  -5.027018E+01  -4.711190E+01  -4.502629E+01  -4.302279E+01  -4.164202E+01  -3.936927E+01  -3.781323E+01  -3.507266E+01  -2.880680E+01  -1.575902E+01   3.761732E+01  -1.773047E+01  -3.439840E+01  -4.198228E+01  -4.738651E+01  -5.157786E+01  -5.357762E+01  -5.183123E+01  -5.081371E+01  -5.170134E+01  -5.276748E+01  -5.418486E+01  -5.515889E+01  -5.546913E+01  -5.540967E+01  -5.551656E+01  -5.477116E+01  -5.440779E+01  -5.389762E+01  -5.352729E+01  -5.288408E+01  -5.212082E+01  -5.165961E+01  -5.175858E+01  -5.201856E+01  -5.210806E+01  -5.188116E+01  -5.121990E+01  -5.050339E+01  -5.023973E+01  -5.045423E+01  -5.097046E+01  -5.234726E+01  -5.334256E+01  -5.233887E+01  -5.301804E+01  -5.337719E+01  -5.254070E+01  -5.161517E+01  -5.265816E+01  -5.456851E+01  -5.624222E+01  -5.927516E+01  -5.997794E+01  -6.023363E+01  -6.339393E+01  -6.626332E+01  -6.578635E+01  -6.486349E+01  -6.441515E+01  -6.741638E+01  -7.081075E+01  -7.459834E+01  -7.636043E+01  -7.642766E+01  -7.754368E+01  -7.566148E+01  -7.405676E+01  -8.013263E+01  -8.149098E+01  -8.192267E+01  -8.372183E+01  -8.411593E+01  -8.433276E+01  -8.232729E+01  -7.939452E+01  -7.670288E+01  -7.034789E+01  -7.541261E+01  -8.401089E+01  -8.440848E+01  -8.373699E+01  -8.377068E+01  -8.301512E+01  -8.351558E+01  -8.340877E+01  -8.178470E+01  -8.349591E+01  -8.554939E+01  -8.707164E+01  -8.851830E+01  -8.942911E+01  -8.961143E+01  -8.922271E+01  -8.888267E+01  -9.047828E+01  -9.114660E+01  -8.934723E+01  -9.184802E+01  -9.197554E+01  -8.972332E+01  -8.589494E+01  -9.112977E+01  -8.722172E+01  -7.941270E+01  -8.158632E+01  -8.907945E+01  -9.116943E+01  -9.113342E+01  -7.888187E+01  -6.283603E+01  -6.251389E+01  -6.506087E+01  -6.503575E+01  -6.410471E+01  -6.475506E+01  -6.141414E+01  -6.292797E+01  -6.149300E+01  -6.024967E+01  -5.779485E+01  -5.682291E+01  -5.827774E+01  -6.337110E+01  -6.464439E+01  -6.468418E+01  -6.927390E+01  -6.914919E+01  -6.722514E+01  -7.436923E+01  -7.591676E+01  -7.565914E+01  -7.306731E+01  -6.427753E+01  -6.054786E+01  -5.975860E+01  -6.422377E+01  -6.556971E+01  -6.448090E+01  -6.188502E+01  -6.134768E+01  -6.131586E+01  -6.267715E+01  -6.372701E+01  -6.426694E+01  -6.657154E+01  -7.138799E+01  -6.946906E+01  -6.779395E+01  -6.683651E+01  -7.244499E+01  -7.168713E+01  -7.111980E+01  -7.170368E+01  -7.110519E+01  -7.084708E+01  -6.923143E+01  -7.803795E+01  -8.937865E+01  -8.941703E+01  -9.084595E+01  -9.065241E+01  -9.100100E+01  -9.138935E+01  -9.123237E+01  -9.016280E+01  -8.838184E+01  -9.055935E+01  -9.247475E+01
  -4.900000E+02  -4.900000E+02  -4.900000E+02  -4.900000E+02  -4.900000E+02  -4.900000E+02  -4.900000E+02  -4.900000E+02  -4.900000E+02  -4.900000E+02  -4.900000E+02  -4.900000E+02  -4.900000E+02  -4.900000E+02  -4.900000E+02  -4.900000E+02  -4.900000E+02  -4.900000E+02  -4.900000E+02  -4.900000E+02  -4.900000E+02  -4.900000E+02  -4.900000E+02  -4.900000E+02  -4.900000E+02  -4.900000E+02  -4.900000E+02  -4.900000E+02  -4.900000E+02  -4.900000E+02  -4.900000E+02  -4.900000E+02  -4.900000E+02  -4.900000E+02  -4.900000E+02  -4.900000E+02  -4.900000E+02  -4.900000E+02  -4.900000E+02  -4.900000E+02  -4.900000E+02  -4.900000E+02  -4.900000E+02  -4.900000E+02  -4.900000E+02  -4.900000E+02  -4.900000E+02  -4.900000E+02  -4.900000E+02  -4.900000E+02  -4.900000E+02  -4.900000E+02  -4.900000E+02  -4.900000E+02  -4.900000E+02  -4.900000E+02  -4.900000E+02  -4.900000E+02  -4.900000E+02  -4.900000E+02  -4.900000E+02  -4.900000E+02  -4.900000E+02  -4.900000E+02  -4.900000E+02  -4.900000E+02  -4.900000E+02  -4.900000E+02  -4.900000E+02  -4.900000E+02  -4.900000E+02  -4.900000E+02  -4.900000E+02  -4.900000E+02  -4.900000E+02  -4.900000E+02  -4.900000E+02  -4.900000E+02  -4.900000E+02  -4.900000E+02  -4.900000E+02  -4.900000E+02  -4.900000E+02  -4.900000E+02  -4.900000E+02  -4.900000E+02  -4.900000E+02  -4.900000E+02  -4.900000E+02  -4.900000E+02  -4.900000E+02  -4.900000E+02  -4.900000E+02  -4.900000E+02  -4.900000E+02  -4.900000E+02  -4.900000E+02  -4.900000E+02  -4.900000E+02  -4.900000E+02  -4.900000E+02  -4.900000E+02  -4.900000E+02  -4.900000E+02  -4.900000E+02  -4.900000E+02  -4.900000E+02  -4.900000E+02  -4.900000E+02  -4.900000E+02  -4.900000E+02  -4.900000E+02  -4.900000E+02  -4.900000E+02  -4.900000E+02  -4.900000E+02  -4.900000E+02  -4.900000E+02  -4.900000E+02  -4.900000E+02  -4.900000E+02  -4.900000E+02  -4.900000E+02  -4.900000E+02  -4.900000E+02  -4.900000E+02  -4.900000E+02  -4.900000E+02  -4.900000E+02  -4.900000E+02  -4.900000E+02  -4.900000E+02  -4.900000E+02  -4.900000E+02  -4.900000E+02  -4.900000E+02  -4.900000E+02  -4.900000E+02  -4.900000E+02  -4.900000E+02  -4.900000E+02  -4.900000E+02  -4.900000E+02  -4.900000E+02  -4.900000E+02  -4.900000E+02  -4.900000E+02  -4.900000E+02  -4.900000E+02  -4.900000E+02  -4.900000E+02  -4.900000E+02  -4.900000E+02  -4.900000E+02  -4.900000E+02  -4.900000E+02  -4.900000E+02  -4.900000E+02  -4.900000E+02  -4.900000E+02  -4.900000E+02  -4.900000E+02  -4.900000E+02  -4.900000E+02  -4.932499E+02  -4.699435E+02  -4.475941E+02  -4.390398E+02  -4.045495E+02  -3.113766E+02  -2.469255E+02  -1.939327E+02  -1.107221E+02  -9.674753E+01  -8.838725E+01  -8.228226E+01  -7.960471E+01  -7.884026E+01  -7.664310E+01  -7.383022E+01  -6.979972E+01  -6.474572E+01  -6.116585E+01  -6.121781E+01  -6.026378E+01  -5.872552E+01  -5.700404E+01  -5.754161E+01  -5.798407E+01  -5.770906E+01  -5.702412E+01  -5.507694E+01  -5.325598E+01  -5.200069E+01  -5.145561E+01  -5.060940E+01  -5.125320E+01  -5.074158E+01  -5.012183E+01  -4.911691E+01  -4.828661E+01  -4.676941E+01  -4.593268E+01  -4.499292E+01  -4.410419E+01  -4.377550E+01  -4.423438E+01  -4.484094E+01  -4.502948E+01  -4.591663E+01  -4.636863E+01  -4.660391E+01  -4.717279E+01  -4.836272E+01  -4.901455E+01  -4.975200E+01  -5.043065E+01  -5.123837E+01  -5.178361E+01  -5.207711E+01  -5.339561E+01  -5.406577E+01  -5.514540E+01  -5.491970E+01  -5.495942E+01  -5.517546E+01  -5.474057E+01  -5.537068E+01  -5.515499E+01  -5.431672E+01  -5.168494E+01  -4.754225E+01  -4.472009E+01  -4.258343E+01  -4.140096E+01  -3.969738E+01  -3.802213E+01  -3.648050E+01  -3.290360E+01  -2.752864E+01  -1.212670E+01   5.898925E+01  -1.292294E+01  -3.269105E+01  -4.220674E+01  -5.091082E+01  -5.645061E+01  -5.976547E+01  -5.478757E+01  -5.095952E+01  -5.128386E+01  -5.254235E+01  -5.337316E+01  -5.484836E+01  -5.537043E+01  -5.550181E+01  -5.488976E+01  -5.471749E+01  -5.419108E+01  -5.402903E+01  -5.392821E+01  -5.361258E+01  -5.279790E+01  -5.272842E+01  -5.338369E+01  -5.331784E+01  -5.340502E+01  -5.353651E+01  -5.332744E+01  -5.339762E+01  -5.314960E+01  -5.297826E+01  -5.293374E+01  -5.391725E+01  -5.457766E+01  -5.489498E+01  -5.500158E+01  -5.457075E+01  -5.404887E+01  -5.332862E+01  -5.612319E+01  -5.865886E+01  -6.008110E+01  -6.102026E+01  -6.170543E+01  -6.158449E+01  -6.263140E+01  -6.326355E+01  -5.818320E+01  -5.797335E+01  -5.912328E+01  -6.282743E+01  -6.542374E+01  -6.872760E+01  -7.152399E+01  -7.599232E+01  -7.740487E+01  -7.868079E+01  -8.087915E+01  -8.305566E+01  -8.325432E+01  -8.415627E+01  -8.490323E+01  -8.483611E+01  -8.460897E+01  -8.377372E+01  -8.197304E+01  -8.047491E+01  -7.343973E+01  -6.930699E+01  -8.009052E+01  -8.422137E+01  -8.383896E+01  -8.387143E+01  -8.426896E+01  -8.512109E+01  -8.494827E+01  -8.413215E+01  -8.470618E+01  -8.621609E+01  -8.798542E+01  -8.981044E+01  -9.049941E+01  -9.116272E+01  -9.080231E+01  -8.981627E+01  -9.098862E+01  -9.086520E+01  -9.058971E+01  -9.071399E+01  -9.106381E+01  -9.110654E+01  -9.021645E+01  -8.970221E+01  -8.874981E+01  -8.820964E+01  -8.770448E+01  -9.030786E+01  -9.110014E+01  -9.066750E+01  -7.369115E+01  -6.152231E+01  -6.209024E+01  -6.463503E+01  -6.498895E+01  -6.401978E+01  -6.449628E+01  -6.440475E+01  -6.256981E+01  -6.092915E+01  -5.982177E+01  -5.654704E+01  -5.563631E+01  -5.644794E+01  -6.050537E+01  -6.273961E+01  -6.353522E+01  -6.730544E+01  -6.713189E+01  -6.644672E+01  -7.313885E+01  -7.666016E+01  -7.739889E+01  -7.701886E+01  -6.982845E+01  -6.197615E+01  -5.903788E+01  -6.253581E+01  -6.649119E+01  -6.436698E+01  -6.322472E+01  -6.094464E+01  -5.897482E+01  -5.952274E+01  -6.228312E+01  -6.243916E+01  -6.220900E+01  -6.583154E+01  -6.418330E+01  -6.294659E+01  -6.181787E+01  -6.371826E+01  -6.568574E+01  -6.782919E+01  -7.680202E+01  -8.227219E+01  -8.386980E+01  -8.335812E+01  -8.656381E+01  -8.867209E+01  -8.537573E+01  -8.274703E+01  -8.099712E+01  -8.217123E+01  -8.675425E+01  -9.019122E+01  -9.118208E+01  -9.114097E+01  -9.211883E+01  -9.276260E+01