# HOB package for  MODFLOW-2005, generated by Flopy.
        73         0         0         7      -999
         1
Obs_0                   1        108         42          1                  0.0     0.0000     0.0000     5.5000   # DATASET 3 - Observation 1
Obs_1                   1        154        100          1                  0.0     0.0000     0.0000     0.2000   # DATASET 3 - Observation 2
Obs_2                   1        160        103          1                  0.0     0.0000     0.0000     0.4000   # DATASET 3 - Observation 3
Obs_3                   1        171        104          1                  0.0     0.0000     0.0000     0.3000   # DATASET 3 - Observation 4
Obs_4                   1        167        105          1                  0.0     0.0000     0.0000     0.6000   # DATASET 3 - Observation 5
Obs_5                   1        140        109          1                  0.0     0.0000     0.0000     2.3000   # DATASET 3 - Observation 6
Obs_6                   1        146        109          1                  0.0     0.0000     0.0000     2.6000   # DATASET 3 - Observation 7
Obs_7                   1        138        111          1                  0.0     0.0000     0.0000     3.5000   # DATASET 3 - Observation 8
Obs_8                   1        153        113          1                  0.0     0.0000     0.0000     1.2000   # DATASET 3 - Observation 9
Obs_9                   1        138        117          1                  0.0     0.0000     0.0000     3.6000   # DATASET 3 - Observation 10
Obs_10                  1        151        118          1                  0.0     0.0000     0.0000     1.2000   # DATASET 3 - Observation 11
Obs_11                  1        150        119          1                  0.0     0.0000     0.0000     1.8000   # DATASET 3 - Observation 12
Obs_12                  1        157        138          1                  0.0     0.0000     0.0000     1.9000   # DATASET 3 - Observation 13
Obs_13                  1        142        141          1                  0.0     0.0000     0.0000     1.3000   # DATASET 3 - Observation 14
Obs_14                  1        156        142          1                  0.0     0.0000     0.0000     0.9000   # DATASET 3 - Observation 15
Obs_15                  1        157        143          1                  0.0     0.0000     0.0000     2.6000   # DATASET 3 - Observation 16
Obs_16                  1        125        144          1                  0.0     0.0000     0.0000    44.7000   # DATASET 3 - Observation 17
Obs_17                  1        155        144          1                  0.0     0.0000     0.0000     1.6000   # DATASET 3 - Observation 18
Obs_18                  1        157        145          1                  0.0     0.0000     0.0000     1.8000   # DATASET 3 - Observation 19
Obs_19                  1        124        149          1                  0.0     0.0000     0.0000     3.0000   # DATASET 3 - Observation 20
Obs_20                  1        155        150          1                  0.0     0.0000     0.0000     1.8000   # DATASET 3 - Observation 21
Obs_21                  1        111        154          1                  0.0     0.0000     0.0000     5.9000   # DATASET 3 - Observation 22
Obs_22                  1        115        154          1                  0.0     0.0000     0.0000     8.2000   # DATASET 3 - Observation 23
Obs_23                  1        117        154          1                  0.0     0.0000     0.0000    19.2000   # DATASET 3 - Observation 24
Obs_24                  1        117        155          1                  0.0     0.0000     0.0000     5.5000   # DATASET 3 - Observation 25
Obs_25                  1        107        156          1                  0.0     0.0000     0.0000     8.0000   # DATASET 3 - Observation 26
Obs_26                  1        117        156          1                  0.0     0.0000     0.0000     6.0000   # DATASET 3 - Observation 27
Obs_27                  1        105        157          1                  0.0     0.0000     0.0000    34.2000   # DATASET 3 - Observation 28
Obs_28                  1        119        157          1                  0.0     0.0000     0.0000     3.2000   # DATASET 3 - Observation 29
Obs_29                  1        103        159          1                  0.0     0.0000     0.0000    16.5000   # DATASET 3 - Observation 30
Obs_30                  1        112        160          1                  0.0     0.0000     0.0000    25.4000   # DATASET 3 - Observation 31
Obs_31                  1        117        160          1                  0.0     0.0000     0.0000     1.8000   # DATASET 3 - Observation 32
Obs_32                  1        128        161          1                  0.0     0.0000     0.0000     0.9000   # DATASET 3 - Observation 33
Obs_33                  1        117        162          1                  0.0     0.0000     0.0000     8.8000   # DATASET 3 - Observation 34
Obs_34                  1        127        162          1                  0.0     0.0000     0.0000     0.8500   # DATASET 3 - Observation 35
Obs_35                  1        128        162          1                  0.0     0.0000     0.0000     0.9000   # DATASET 3 - Observation 36
Obs_36                  1        167        162          1                  0.0     0.0000     0.0000     0.6000   # DATASET 3 - Observation 37
Obs_37                  1        109        163          1                  0.0     0.0000     0.0000    20.3000   # DATASET 3 - Observation 38
Obs_38                  1        125        163          1                  0.0     0.0000     0.0000     0.8000   # DATASET 3 - Observation 39
Obs_39                  1        122        164          1                  0.0     0.0000     0.0000     1.8000   # DATASET 3 - Observation 40
Obs_40                  1        126        164          1                  0.0     0.0000     0.0000     2.5000   # DATASET 3 - Observation 41
Obs_41                  1        134        169          1                  0.0     0.0000     0.0000     0.3000   # DATASET 3 - Observation 42
Obs_42                  1        149        175          1                  0.0     0.0000     0.0000     0.5000   # DATASET 3 - Observation 43
Obs_43                  1        123        178          1                  0.0     0.0000     0.0000     1.0000   # DATASET 3 - Observation 44
Obs_44                  1         70        192          1                  0.0     0.0000     0.0000    62.5000   # DATASET 3 - Observation 45
Obs_45                  1         99        193          1                  0.0     0.0000     0.0000    15.8000   # DATASET 3 - Observation 46
Obs_46                  1         57        195          1                  0.0     0.0000     0.0000     1.2000   # DATASET 3 - Observation 47
Obs_47                  1         58        196          1                  0.0     0.0000     0.0000     7.3000   # DATASET 3 - Observation 48
Obs_48                  1         60        197          1                  0.0     0.0000     0.0000     7.3000   # DATASET 3 - Observation 49
Obs_49                  1         61        197          1                  0.0     0.0000     0.0000    10.5000   # DATASET 3 - Observation 50
Obs_50                  1         62        197          1                  0.0     0.0000     0.0000     8.2000   # DATASET 3 - Observation 51
Obs_51                  1         62        198          1                  0.0     0.0000     0.0000    10.7000   # DATASET 3 - Observation 52
Obs_52                  1         63        198          1                  0.0     0.0000     0.0000    14.5500   # DATASET 3 - Observation 53
Obs_53                  1         64        198          1                  0.0     0.0000     0.0000    20.3000   # DATASET 3 - Observation 54
Obs_54                  1         52        199          1                  0.0     0.0000     0.0000     1.2000   # DATASET 3 - Observation 55
Obs_55                  1         56        201          1                  0.0     0.0000     0.0000     3.0000   # DATASET 3 - Observation 56
Obs_56                  1         66        213          1                  0.0     0.0000     0.0000     6.6500   # DATASET 3 - Observation 57
Obs_57                  1         81        219          1                  0.0     0.0000     0.0000     2.7000   # DATASET 3 - Observation 58
Obs_58                  1         79        224          1                  0.0     0.0000     0.0000     6.1000   # DATASET 3 - Observation 59
Obs_59                  1         67        227          1                  0.0     0.0000     0.0000     0.1000   # DATASET 3 - Observation 60
Obs_60                  1         32        245          1                  0.0     0.0000     0.0000     8.1000   # DATASET 3 - Observation 61
Obs_61                  1         32        246          1                  0.0     0.0000     0.0000     8.2000   # DATASET 3 - Observation 62
Obs_62                  1         51        254          1                  0.0     0.0000     0.0000     5.6000   # DATASET 3 - Observation 63
Obs_63                  1         52        254          1                  0.0     0.0000     0.0000     5.5000   # DATASET 3 - Observation 64
Obs_64                  1         50        255          1                  0.0     0.0000     0.0000     4.3000   # DATASET 3 - Observation 65
Obs_65                  1         51        255          1                  0.0     0.0000     0.0000     5.5000   # DATASET 3 - Observation 66
Obs_66                  1         71        266          1                  0.0     0.0000     0.0000     6.0000   # DATASET 3 - Observation 67
Obs_67                  1         70        267          1                  0.0     0.0000     0.0000     7.3000   # DATASET 3 - Observation 68
Obs_68                  1         36        338          1                  0.0     0.0000     0.0000     2.7000   # DATASET 3 - Observation 69
Obs_69                  1         57        349          1                  0.0     0.0000     0.0000     5.3000   # DATASET 3 - Observation 70
Obs_70                  1         30        373          1                  0.0     0.0000     0.0000     3.1000   # DATASET 3 - Observation 71
Obs_71                  1         28        374          1                  0.0     0.0000     0.0000     3.0000   # DATASET 3 - Observation 72
Obs_72                  1         45        377          1                  0.0     0.0000     0.0000     5.7000   # DATASET 3 - Observation 73
