# OC package for  MODFLOW-2005, generated by Flopy.
HEAD PRINT FORMAT   0
HEAD SAVE UNIT    51
DRAWDOWN PRINT FORMAT   0
COMPACT BUDGET AUX

period 1 step 20 
  save head
  print budget

period 1 step 40 
  save head
  print budget

period 1 step 60 
  save head
  print budget

period 1 step 80 
  save head
  print budget

period 1 step 100 
  save head
  print budget

period 1 step 120 
  save head
  print budget

period 1 step 140 
  save head
  print budget

