# DIS package for  MODFLOW-2005, generated by Flopy.
         1       100       200         1         4         2
  0
CONSTANT    1.690000E+02                           #delr                          
CONSTANT    1.650000E+02                           #delc                          
INTERNAL               1 (200E15.6) -1 #model_top                     
  -1.240000E+03  -1.240000E+03  -1.240000E+03  -1.240000E+03  -1.240000E+03  -1.240000E+03  -1.240000E+03  -1.240000E+03  -1.240000E+03  -1.240000E+03  -1.240000E+03  -1.240000E+03  -1.240000E+03  -1.240000E+03  -1.240000E+03  -1.240000E+03  -1.240000E+03  -1.240000E+03  -1.240000E+03  -1.240000E+03  -1.240000E+03  -1.240000E+03  -1.240000E+03  -1.240000E+03  -1.240000E+03  -1.240000E+03  -1.240000E+03  -1.240000E+03  -1.240000E+03  -1.240000E+03  -1.240000E+03  -1.240000E+03  -1.240000E+03  -1.240000E+03  -1.240000E+03  -1.240000E+03  -1.240000E+03  -1.240000E+03  -1.240000E+03  -1.240000E+03  -1.240000E+03  -1.240000E+03  -1.240000E+03  -1.240000E+03  -1.240000E+03  -1.240000E+03  -1.240000E+03  -1.240000E+03  -1.240000E+03  -1.240000E+03  -1.240000E+03  -1.240000E+03  -1.240000E+03  -1.240000E+03  -1.240000E+03  -1.240000E+03  -1.240000E+03  -1.240000E+03  -1.240000E+03  -1.240000E+03  -1.240000E+03  -1.240000E+03  -1.240000E+03  -1.240000E+03  -1.240000E+03  -1.240000E+03  -1.240000E+03  -1.240000E+03  -1.240000E+03  -1.230264E+03  -1.174362E+03  -1.126004E+03  -1.084607E+03  -1.039407E+03  -1.008263E+03  -9.803638E+02  -9.509230E+02  -9.368476E+02  -8.692885E+02  -7.974252E+02  -7.299918E+02  -6.794252E+02  -6.391121E+02  -5.398805E+02  -4.259895E+02  -2.911601E+02  -1.239259E+02  -8.566552E+01  -8.027663E+01  -8.061785E+01  -7.810682E+01  -7.301456E+01  -6.090105E+01  -5.783386E+01  -5.608365E+01  -5.551130E+01  -5.181114E+01  -5.046280E+01  -4.787613E+01  -4.492298E+01  -3.161645E+01  -2.841961E+01  -2.806579E+01  -2.836822E+01  -3.213430E+01  -4.373085E+01  -4.713193E+01  -4.954596E+01  -5.162015E+01  -5.331764E+01  -5.506056E+01  -5.607864E+01  -5.681469E+01  -5.557238E+01  -5.541412E+01  -5.494824E+01  -5.181041E+01  -4.655109E+01  -3.965578E+01  -8.113593E+00  -3.685035E+01  -4.684457E+01  -4.995473E+01  -5.147444E+01  -5.289879E+01  -5.385849E+01  -5.469865E+01  -5.456192E+01  -5.203323E+01  -5.114941E+01  -4.991589E+01  -4.887127E+01  -4.863395E+01  -4.838526E+01  -4.834557E+01  -4.938037E+01  -5.044386E+01  -5.185526E+01  -5.365693E+01  -5.692873E+01  -5.802989E+01  -6.086757E+01  -6.388723E+01  -6.117101E+01  -6.572769E+01  -7.323670E+01  -7.519444E+01  -6.779432E+01  -7.075356E+01  -6.452335E+01  -6.510000E+01  -7.146879E+01  -8.475366E+01  -8.363134E+01  -8.044176E+01  -8.410094E+01  -8.864947E+01  -8.982655E+01  -8.933063E+01  -8.074500E+01  -8.365914E+01  -7.069812E+01  -6.913453E+01  -6.658223E+01  -6.801448E+01  -6.434918E+01  -6.961107E+01  -6.978908E+01  -8.329858E+01  -6.294061E+01  -6.251666E+01  -6.642366E+01  -6.840263E+01  -6.833165E+01  -6.835118E+01  -6.742524E+01  -6.831209E+01  -6.791540E+01  -6.738397E+01  -6.865762E+01  -6.915242E+01  -6.975154E+01  -7.049868E+01  -7.229628E+01  -7.034837E+01  -7.165165E+01  -7.636311E+01  -7.894956E+01  -6.865799E+01  -6.343906E+01  -6.169925E+01  -6.163254E+01  -6.308934E+01  -6.863054E+01  -8.817648E+01  -9.202967E+01  -9.397181E+01  -8.151610E+01  -7.666477E+01  -6.902465E+01
  -1.240000E+03  -1.240000E+03  -1.240000E+03  -1.240000E+03  -1.240000E+03  -1.240000E+03  -1.240000E+03  -1.240000E+03  -1.240000E+03  -1.240000E+03  -1.240000E+03  -1.240000E+03  -1.240000E+03  -1.240000E+03  -1.240000E+03  -1.240000E+03  -1.240000E+03  -1.240000E+03  -1.240000E+03  -1.240000E+03  -1.240000E+03  -1.240000E+03  -1.240000E+03  -1.240000E+03  -1.240000E+03  -1.240000E+03  -1.240000E+03  -1.240000E+03  -1.240000E+03  -1.240000E+03  -1.240000E+03  -1.240000E+03  -1.240000E+03  -1.240000E+03  -1.240000E+03  -1.240000E+03  -1.240000E+03  -1.240000E+03  -1.240000E+03  -1.240000E+03  -1.240000E+03  -1.240000E+03  -1.240000E+03  -1.240000E+03  -1.240000E+03  -1.240000E+03  -1.240000E+03  -1.240000E+03  -1.240000E+03  -1.240000E+03  -1.240000E+03  -1.240000E+03  -1.240000E+03  -1.240000E+03  -1.240000E+03  -1.240000E+03  -1.240000E+03  -1.240000E+03  -1.240000E+03  -1.240000E+03  -1.240000E+03  -1.240000E+03  -1.240000E+03  -1.240000E+03  -1.240000E+03  -1.240000E+03  -1.240000E+03  -1.240000E+03  -1.230481E+03  -1.180366E+03  -1.138652E+03  -1.090877E+03  -1.046655E+03  -9.987868E+02  -9.603011E+02  -9.337164E+02  -9.007692E+02  -8.707785E+02  -8.097316E+02  -7.204121E+02  -6.539804E+02  -6.026572E+02  -5.565828E+02  -5.052294E+02  -3.906158E+02  -2.181324E+02  -1.022632E+02  -8.309559E+01  -7.978362E+01  -7.751292E+01  -7.243656E+01  -6.223294E+01  -6.141209E+01  -5.738673E+01  -5.735509E+01  -5.397527E+01  -5.128128E+01  -5.021095E+01  -4.928340E+01  -4.740560E+01  -4.449401E+01  -3.848699E+01  -3.764439E+01  -3.610296E+01  -4.082008E+01  -4.401209E+01  -4.719460E+01  -4.959197E+01  -5.153209E+01  -5.371010E+01  -5.491773E+01  -5.554974E+01  -5.541446E+01  -5.541352E+01  -5.559103E+01  -5.083631E+01  -4.576353E+01  -4.181808E+01  -3.644693E+01  -1.670677E+01  -2.180280E+01  -4.357868E+01  -5.079866E+01  -5.136870E+01  -5.302420E+01  -5.459103E+01  -5.559766E+01  -5.514454E+01  -5.340929E+01  -5.266047E+01  -5.139531E+01  -5.073893E+01  -5.043003E+01  -4.980556E+01  -4.892160E+01  -4.980315E+01  -5.021399E+01  -5.039426E+01  -5.132584E+01  -5.306134E+01  -5.582249E+01  -5.960324E+01  -6.479883E+01  -6.818525E+01  -6.497475E+01  -7.576538E+01  -7.807127E+01  -7.774839E+01  -6.923592E+01  -6.655060E+01  -7.845265E+01  -8.069926E+01  -8.164638E+01  -8.263941E+01  -8.230922E+01  -8.040228E+01  -8.182990E+01  -8.474609E+01  -8.714880E+01  -8.827695E+01  -8.759911E+01  -9.140777E+01  -9.118562E+01  -9.087565E+01  -9.016334E+01  -9.180321E+01  -8.918233E+01  -7.952423E+01  -9.045325E+01  -6.674018E+01  -6.195950E+01  -6.316472E+01  -6.479978E+01  -6.495264E+01  -6.011800E+01  -6.397224E+01  -6.640524E+01  -6.837766E+01  -6.798335E+01  -6.834699E+01  -6.939943E+01  -6.087837E+01  -6.375098E+01  -6.443365E+01  -6.350504E+01  -6.457317E+01  -7.305157E+01  -8.213079E+01  -8.026801E+01  -7.423898E+01  -6.738467E+01  -6.445349E+01  -6.382070E+01  -8.861644E+01  -9.170470E+01  -9.236608E+01  -8.556941E+01  -8.914862E+01  -9.412564E+01  -9.363688E+01
  -1.240000E+03  -1.240000E+03  -1.240000E+03  -1.240000E+03  -1.240000E+03  -1.240000E+03  -1.240000E+03  -1.240000E+03  -1.240000E+03  -1.240000E+03  -1.240000E+03  -1.240000E+03  -1.240000E+03  -1.240000E+03  -1.240000E+03  -1.240000E+03  -1.240000E+03  -1.240000E+03  -1.240000E+03  -1.240000E+03  -1.240000E+03  -1.240000E+03  -1.240000E+03  -1.240000E+03  -1.240000E+03  -1.240000E+03  -1.240000E+03  -1.240000E+03  -1.240000E+03  -1.240000E+03  -1.240000E+03  -1.240000E+03  -1.240000E+03  -1.240000E+03  -1.240000E+03  -1.240000E+03  -1.240000E+03  -1.240000E+03  -1.240000E+03  -1.240000E+03  -1.240000E+03  -1.240000E+03  -1.240000E+03  -1.240000E+03  -1.240000E+03  -1.240000E+03  -1.240000E+03  -1.240000E+03  -1.240000E+03  -1.240000E+03  -1.240000E+03  -1.240000E+03  -1.240000E+03  -1.240000E+03  -1.240000E+03  -1.240000E+03  -1.240000E+03  -1.240000E+03  -1.240000E+03  -1.240000E+03  -1.240000E+03  -1.240000E+03  -1.240000E+03  -1.240000E+03  -1.240000E+03  -1.240000E+03  -1.240000E+03  -1.218905E+03  -1.176247E+03  -1.118173E+03  -1.096120E+03  -1.061598E+03  -1.015680E+03  -9.657347E+02  -9.177138E+02  -8.776172E+02  -8.500208E+02  -8.144371E+02  -6.243421E+02  -5.604500E+02  -5.415717E+02  -5.125585E+02  -4.708162E+02  -4.372499E+02  -2.933097E+02  -1.580942E+02  -9.305419E+01  -8.065344E+01  -7.824733E+01  -7.243107E+01  -6.267488E+01  -6.108430E+01  -5.789016E+01  -5.783994E+01  -5.711100E+01  -5.376938E+01  -5.137791E+01  -5.083221E+01  -5.027644E+01  -4.848454E+01  -4.599480E+01  -4.401416E+01  -4.378004E+01  -4.461396E+01  -4.592403E+01  -4.674506E+01  -4.878237E+01  -5.018695E+01  -5.179397E+01  -5.324412E+01  -5.515609E+01  -5.305438E+01  -5.486675E+01  -5.526494E+01  -5.228169E+01  -4.523598E+01  -4.184898E+01  -3.825887E+01  -3.308881E+01  -1.037729E+01  -1.492014E+01  -4.180247E+01  -5.549958E+01  -5.326601E+01  -5.132100E+01  -5.365348E+01  -5.533352E+01  -5.521595E+01  -5.409222E+01  -5.393571E+01  -5.266397E+01  -5.338792E+01  -5.362321E+01  -5.302612E+01  -5.274046E+01  -5.297264E+01  -5.438919E+01  -5.487138E+01  -5.286685E+01  -5.647305E+01  -5.984372E+01  -6.100138E+01  -6.349610E+01  -5.804515E+01  -6.239924E+01  -6.810082E+01  -7.516315E+01  -7.813786E+01  -8.188529E+01  -8.352557E+01  -8.447926E+01  -8.424328E+01  -8.031622E+01  -6.902662E+01  -8.314962E+01  -8.401043E+01  -8.450470E+01  -8.338135E+01  -8.540891E+01  -8.927145E+01  -9.069225E+01  -8.988248E+01  -9.063847E+01  -9.062035E+01  -9.126249E+01  -8.976602E+01  -8.648740E+01  -9.054770E+01  -9.044588E+01  -6.219976E+01  -6.476337E+01  -6.412563E+01  -6.481429E+01  -6.141383E+01  -5.652999E+01  -5.643637E+01  -6.310849E+01  -6.774437E+01  -6.786241E+01  -7.680955E+01  -7.654366E+01  -6.104524E+01  -6.360218E+01  -6.427191E+01  -6.063994E+01  -6.038702E+01  -6.291347E+01  -6.658012E+01  -6.295440E+01  -6.506511E+01  -6.923708E+01  -8.218099E+01  -8.138512E+01  -8.844530E+01  -8.380045E+01  -8.575262E+01  -9.093048E+01  -9.094685E+01  -9.306976E+01  -9.400037E+01
  -1.240000E+03  -1.240000E+03  -1.240000E+03  -1.240000E+03  -1.240000E+03  -1.240000E+03  -1.240000E+03  -1.240000E+03  -1.240000E+03  -1.240000E+03  -1.240000E+03  -1.240000E+03  -1.240000E+03  -1.240000E+03  -1.240000E+03  -1.240000E+03  -1.240000E+03  -1.240000E+03  -1.240000E+03  -1.240000E+03  -1.240000E+03  -1.240000E+03  -1.240000E+03  -1.240000E+03  -1.240000E+03  -1.240000E+03  -1.240000E+03  -1.240000E+03  -1.240000E+03  -1.240000E+03  -1.240000E+03  -1.240000E+03  -1.240000E+03  -1.240000E+03  -1.240000E+03  -1.240000E+03  -1.240000E+03  -1.240000E+03  -1.240000E+03  -1.240000E+03  -1.240000E+03  -1.240000E+03  -1.240000E+03  -1.240000E+03  -1.240000E+03  -1.240000E+03  -1.240000E+03  -1.240000E+03  -1.240000E+03  -1.240000E+03  -1.240000E+03  -1.240000E+03  -1.240000E+03  -1.240000E+03  -1.240000E+03  -1.240000E+03  -1.240000E+03  -1.240000E+03  -1.240000E+03  -1.240000E+03  -1.240000E+03  -1.240000E+03  -1.240000E+03  -1.240000E+03  -1.240000E+03  -1.223227E+03  -1.186375E+03  -1.163382E+03  -1.119486E+03  -1.057760E+03  -1.024478E+03  -1.009604E+03  -9.770226E+02  -9.354000E+02  -8.850038E+02  -8.354860E+02  -8.020877E+02  -7.628303E+02  -5.631152E+02  -5.109905E+02  -4.526412E+02  -4.255245E+02  -3.896961E+02  -3.394362E+02  -2.647704E+02  -1.409704E+02  -9.085504E+01  -7.992084E+01  -7.336961E+01  -6.296583E+01  -5.873928E+01  -5.766513E+01  -5.884535E+01  -5.665271E+01  -5.563800E+01  -5.535799E+01  -5.298809E+01  -5.131702E+01  -5.080849E+01  -4.843177E+01  -4.757177E+01  -4.659435E+01  -4.778939E+01  -4.899294E+01  -4.876373E+01  -4.975544E+01  -4.988349E+01  -5.060985E+01  -5.170977E+01  -5.312724E+01  -5.387856E+01  -5.477235E+01  -5.485397E+01  -5.320701E+01  -4.733366E+01  -4.104081E+01  -3.732863E+01  -3.552258E+01  -2.832518E+01   4.877518E+01  -1.354289E+01  -4.128675E+01  -6.620063E+01  -6.709966E+01  -5.666251E+01  -5.439223E+01  -5.580262E+01  -5.579771E+01  -5.503390E+01  -5.433536E+01  -5.400085E+01  -5.344722E+01  -5.334909E+01  -5.421337E+01  -5.537515E+01  -5.480602E+01  -5.742429E+01  -5.689294E+01  -5.723223E+01  -6.009981E+01  -6.371031E+01  -6.710100E+01  -7.021359E+01  -5.788940E+01  -5.455960E+01  -5.500703E+01  -7.340041E+01  -7.842677E+01  -8.354506E+01  -8.348818E+01  -8.598526E+01  -8.622458E+01  -8.480491E+01  -8.230932E+01  -8.168536E+01  -8.811639E+01  -8.815804E+01  -8.630152E+01  -7.845877E+01  -6.485410E+01  -9.086357E+01  -9.126849E+01  -9.079046E+01  -9.011318E+01  -8.945334E+01  -8.910449E+01  -8.898166E+01  -8.923421E+01  -8.971672E+01  -7.348338E+01  -6.297678E+01  -6.241149E+01  -6.312469E+01  -6.761378E+01  -6.443745E+01  -5.788779E+01  -5.994703E+01  -6.435658E+01  -5.844168E+01  -6.772307E+01  -6.815895E+01  -6.339259E+01  -6.040705E+01  -6.211460E+01  -6.242336E+01  -6.005796E+01  -6.427422E+01  -6.251193E+01  -6.115397E+01  -6.145317E+01  -6.264696E+01  -7.926392E+01  -8.302003E+01  -7.774879E+01  -7.858894E+01  -8.218941E+01  -8.409355E+01  -9.176527E+01  -9.153741E+01  -8.810122E+01
  -1.240000E+03  -1.240000E+03  -1.240000E+03  -1.240000E+03  -1.240000E+03  -1.240000E+03  -1.240000E+03  -1.240000E+03  -1.240000E+03  -1.240000E+03  -1.240000E+03  -1.240000E+03  -1.240000E+03  -1.240000E+03  -1.240000E+03  -1.240000E+03  -1.240000E+03  -1.240000E+03  -1.240000E+03  -1.240000E+03  -1.240000E+03  -1.240000E+03  -1.240000E+03  -1.240000E+03  -1.240000E+03  -1.240000E+03  -1.240000E+03  -1.240000E+03  -1.240000E+03  -1.240000E+03  -1.240000E+03  -1.240000E+03  -1.240000E+03  -1.240000E+03  -1.240000E+03  -1.240000E+03  -1.240000E+03  -1.240000E+03  -1.240000E+03  -1.240000E+03  -1.240000E+03  -1.240000E+03  -1.240000E+03  -1.240000E+03  -1.240000E+03  -1.240000E+03  -1.240000E+03  -1.240000E+03  -1.240000E+03  -1.240000E+03  -1.240000E+03  -1.240000E+03  -1.240000E+03  -1.240000E+03  -1.240000E+03  -1.240000E+03  -1.240000E+03  -1.240000E+03  -1.240000E+03  -1.220571E+03  -1.194603E+03  -1.197392E+03  -1.190311E+03  -1.184885E+03  -1.180992E+03  -1.167775E+03  -1.145165E+03  -1.107002E+03  -1.070097E+03  -1.019857E+03  -9.698103E+02  -9.350009E+02  -9.136930E+02  -8.808696E+02  -8.325394E+02  -7.980240E+02  -7.508256E+02  -7.146432E+02  -5.499547E+02  -4.951043E+02  -4.313916E+02  -3.251697E+02  -2.818778E+02  -2.416202E+02  -2.004702E+02  -9.538148E+01  -8.357043E+01  -7.315839E+01  -6.341573E+01  -6.116816E+01  -5.767397E+01  -5.717927E+01  -5.585386E+01  -5.555219E+01  -5.513179E+01  -5.635391E+01  -5.604266E+01  -5.362453E+01  -5.147712E+01  -5.029238E+01  -4.933753E+01  -4.849863E+01  -4.927028E+01  -5.047553E+01  -5.065789E+01  -4.947274E+01  -4.917419E+01  -4.594632E+01  -4.908601E+01  -5.119329E+01  -5.321585E+01  -5.473113E+01  -5.401158E+01  -4.726574E+01  -4.200230E+01  -3.749668E+01  -3.430424E+01  -3.221975E+01  -1.812394E+01   8.723186E+01  -9.088867E+00  -3.121208E+01  -6.520716E+01  -6.668779E+01  -5.959008E+01  -6.752866E+01  -5.729908E+01  -5.670602E+01  -5.382670E+01  -5.450426E+01  -5.557409E+01  -5.508989E+01  -5.479250E+01  -5.404432E+01  -5.599453E+01  -5.751365E+01  -5.944985E+01  -6.215843E+01  -6.294120E+01  -6.332667E+01  -6.842668E+01  -6.803340E+01  -6.907161E+01  -6.960054E+01  -5.576348E+01  -5.339957E+01  -5.611712E+01  -6.652871E+01  -6.703512E+01  -7.207978E+01  -7.018648E+01  -7.232916E+01  -8.386162E+01  -8.692250E+01  -8.782072E+01  -9.165008E+01  -8.905084E+01  -5.339120E+01  -4.679300E+01  -4.877893E+01  -6.910610E+01  -8.969119E+01  -9.001971E+01  -8.961572E+01  -8.933312E+01  -8.858766E+01  -8.885568E+01  -8.856518E+01  -8.834174E+01  -8.901358E+01  -8.801138E+01  -8.360786E+01  -7.932404E+01  -6.823081E+01  -7.302450E+01  -7.819659E+01  -6.869163E+01  -6.322383E+01  -6.702914E+01  -6.831268E+01  -6.955859E+01  -8.078429E+01  -7.686369E+01  -6.999207E+01  -7.500557E+01  -7.759238E+01  -7.817226E+01  -6.777625E+01  -6.420375E+01  -6.303569E+01  -6.251636E+01  -6.261745E+01  -6.935606E+01  -8.209074E+01  -8.042946E+01  -7.604424E+01  -8.417625E+01  -8.846970E+01  -8.795457E+01  -8.299776E+01
  -1.240000E+03  -1.240000E+03  -1.240000E+03  -1.240000E+03  -1.240000E+03  -1.240000E+03  -1.240000E+03  -1.240000E+03  -1.240000E+03  -1.240000E+03  -1.240000E+03  -1.240000E+03  -1.240000E+03  -1.240000E+03  -1.240000E+03  -1.240000E+03  -1.240000E+03  -1.240000E+03  -1.240000E+03  -1.240000E+03  -1.240000E+03  -1.240000E+03  -1.240000E+03  -1.240000E+03  -1.240000E+03  -1.240000E+03  -1.240000E+03  -1.240000E+03  -1.240000E+03  -1.240000E+03  -1.240000E+03  -1.240000E+03  -1.240000E+03  -1.240000E+03  -1.240000E+03  -1.240000E+03  -1.240000E+03  -1.240000E+03  -1.240000E+03  -1.240000E+03  -1.240000E+03  -1.240000E+03  -1.240000E+03  -1.240000E+03  -1.240000E+03  -1.240000E+03  -1.240000E+03  -1.240000E+03  -1.240000E+03  -1.240000E+03  -1.240000E+03  -1.240000E+03  -1.240000E+03  -1.240000E+03  -1.240000E+03  -1.240000E+03  -1.240000E+03  -1.210924E+03  -1.161548E+03  -1.145012E+03  -1.127675E+03  -1.132238E+03  -1.128319E+03  -1.122090E+03  -1.116469E+03  -1.108408E+03  -1.086321E+03  -1.051940E+03  -1.016576E+03  -9.748050E+02  -9.282597E+02  -8.678592E+02  -8.273278E+02  -7.964631E+02  -7.628105E+02  -6.844955E+02  -5.827745E+02  -5.956928E+02  -5.293777E+02  -4.641036E+02  -4.166347E+02  -3.039970E+02  -1.990451E+02  -1.851151E+02  -1.824685E+02  -8.971693E+01  -7.623009E+01  -6.770721E+01  -6.152955E+01  -5.935532E+01  -5.732052E+01  -5.639751E+01  -5.513755E+01  -5.530766E+01  -5.532493E+01  -5.467707E+01  -5.564076E+01  -5.544917E+01  -5.343394E+01  -5.095423E+01  -4.940525E+01  -4.881203E+01  -4.987630E+01  -4.980972E+01  -5.098861E+01  -5.036540E+01  -4.928325E+01  -4.882817E+01  -5.023952E+01  -5.208574E+01  -5.443190E+01  -5.444350E+01  -4.783932E+01  -4.017186E+01  -3.650186E+01  -3.352256E+01  -2.962136E+01  -9.615141E+00  -1.099067E+01  -8.554377E+00  -8.215097E+00  -3.318128E+01  -5.162364E+01  -6.359798E+01  -5.099065E+01  -6.919203E+01  -7.132313E+01  -7.000978E+01  -5.171868E+01  -5.374775E+01  -5.729745E+01  -5.660079E+01  -5.538068E+01  -5.676827E+01  -5.987517E+01  -5.914585E+01  -6.305460E+01  -6.509074E+01  -6.436954E+01  -7.432826E+01  -7.346151E+01  -6.528124E+01  -6.599648E+01  -7.032765E+01  -6.723791E+01  -6.121002E+01  -5.634168E+01  -5.767345E+01  -6.676629E+01  -5.902205E+01  -5.943526E+01  -5.827857E+01  -7.471326E+01  -8.969235E+01  -9.071157E+01  -8.986717E+01  -8.923666E+01  -8.984930E+01  -7.924348E+01  -8.137080E+01  -8.916949E+01  -8.912885E+01  -8.912315E+01  -8.931268E+01  -8.907596E+01  -8.865253E+01  -8.805191E+01  -8.775603E+01  -8.774137E+01  -8.814420E+01  -8.777081E+01  -7.804044E+01  -7.181293E+01  -5.537886E+01  -7.803186E+01  -7.631487E+01  -6.990139E+01  -6.319573E+01  -6.547683E+01  -7.192806E+01  -7.612611E+01  -7.715215E+01  -7.794641E+01  -7.266629E+01  -6.610677E+01  -6.187162E+01  -5.804905E+01  -6.380807E+01  -6.245264E+01  -6.111751E+01  -6.305703E+01  -6.379866E+01  -6.711926E+01  -7.070671E+01  -8.019527E+01  -8.194064E+01  -8.805758E+01  -8.615937E+01  -6.786909E+01  -6.962444E+01
  -1.240000E+03  -1.240000E+03  -1.240000E+03  -1.240000E+03  -1.240000E+03  -1.240000E+03  -1.240000E+03  -1.240000E+03  -1.240000E+03  -1.240000E+03  -1.240000E+03  -1.240000E+03  -1.240000E+03  -1.240000E+03  -1.240000E+03  -1.240000E+03  -1.240000E+03  -1.240000E+03  -1.240000E+03  -1.240000E+03  -1.240000E+03  -1.240000E+03  -1.240000E+03  -1.240000E+03  -1.240000E+03  -1.240000E+03  -1.240000E+03  -1.240000E+03  -1.240000E+03  -1.240000E+03  -1.240000E+03  -1.240000E+03  -1.240000E+03  -1.240000E+03  -1.240000E+03  -1.240000E+03  -1.240000E+03  -1.240000E+03  -1.240000E+03  -1.240000E+03  -1.240000E+03  -1.240000E+03  -1.240000E+03  -1.240000E+03  -1.240000E+03  -1.240000E+03  -1.240000E+03  -1.240000E+03  -1.240000E+03  -1.240000E+03  -1.240000E+03  -1.240000E+03  -1.240000E+03  -1.240000E+03  -1.229547E+03  -1.193835E+03  -1.173289E+03  -1.145675E+03  -1.109489E+03  -1.078775E+03  -1.059507E+03  -1.067452E+03  -1.054404E+03  -1.056197E+03  -1.041318E+03  -1.034564E+03  -1.027736E+03  -9.907664E+02  -9.529017E+02  -9.167076E+02  -8.755535E+02  -8.306853E+02  -7.500590E+02  -7.223282E+02  -6.853909E+02  -5.799919E+02  -5.119412E+02  -5.201749E+02  -4.947675E+02  -4.495312E+02  -3.869037E+02  -2.599811E+02  -1.970976E+02  -1.873719E+02  -1.304674E+02  -7.705581E+01  -6.817529E+01  -6.209069E+01  -5.867671E+01  -5.499354E+01  -5.429637E+01  -5.452408E+01  -5.463505E+01  -5.442197E+01  -5.456569E+01  -5.423522E+01  -5.555184E+01  -5.568979E+01  -5.368803E+01  -5.130843E+01  -4.978739E+01  -4.993940E+01  -5.062300E+01  -5.128458E+01  -5.270761E+01  -5.272752E+01  -5.164878E+01  -5.221870E+01  -5.485158E+01  -5.670832E+01  -5.543233E+01  -4.974823E+01  -4.042627E+01  -3.361433E+01  -2.820590E+01  -1.869683E+01  -1.419015E+01  -7.262053E+00   5.164681E+01   2.570724E+01  -1.182780E+01  -3.237985E+01  -4.891413E+01  -6.048141E+01  -6.223103E+01  -6.663266E+01  -7.112667E+01  -7.267739E+01  -7.283161E+01  -6.532475E+01  -6.405367E+01  -5.983817E+01  -6.043609E+01  -6.835412E+01  -6.999604E+01  -7.248688E+01  -7.451500E+01  -7.734890E+01  -8.023959E+01  -8.200016E+01  -7.918414E+01  -7.023154E+01  -7.355671E+01  -8.068495E+01  -7.983929E+01  -7.080133E+01  -7.079343E+01  -6.726786E+01  -6.359618E+01  -5.528391E+01  -6.425501E+01  -7.976493E+01  -8.182104E+01  -8.855695E+01  -8.775762E+01  -8.841127E+01  -8.803928E+01  -8.923214E+01  -9.039700E+01  -9.006268E+01  -8.859163E+01  -8.783228E+01  -8.900030E+01  -8.926323E+01  -8.899608E+01  -8.772156E+01  -8.747645E+01  -8.718883E+01  -8.664668E+01  -8.796132E+01  -8.277120E+01  -8.059941E+01  -8.400399E+01  -8.253629E+01  -8.189092E+01  -7.952547E+01  -6.279534E+01  -6.325568E+01  -6.535436E+01  -6.304890E+01  -6.209643E+01  -6.304137E+01  -5.714206E+01  -5.378199E+01  -5.175942E+01  -5.067122E+01  -4.876249E+01  -4.844757E+01  -5.175142E+01  -5.486411E+01  -6.425264E+01  -6.737892E+01  -7.297430E+01  -7.713517E+01  -8.471084E+01  -8.426133E+01  -8.692036E+01  -8.383197E+01  -6.303290E+01  -6.354202E+01
  -1.240000E+03  -1.240000E+03  -1.240000E+03  -1.240000E+03  -1.240000E+03  -1.240000E+03  -1.240000E+03  -1.240000E+03  -1.240000E+03  -1.240000E+03  -1.240000E+03  -1.240000E+03  -1.240000E+03  -1.240000E+03  -1.240000E+03  -1.240000E+03  -1.240000E+03  -1.240000E+03  -1.240000E+03  -1.240000E+03  -1.240000E+03  -1.240000E+03  -1.240000E+03  -1.240000E+03  -1.240000E+03  -1.240000E+03  -1.240000E+03  -1.240000E+03  -1.240000E+03  -1.240000E+03  -1.240000E+03  -1.240000E+03  -1.240000E+03  -1.240000E+03  -1.240000E+03  -1.240000E+03  -1.240000E+03  -1.240000E+03  -1.240000E+03  -1.240000E+03  -1.240000E+03  -1.240000E+03  -1.240000E+03  -1.240000E+03  -1.240000E+03  -1.240000E+03  -1.240000E+03  -1.240000E+03  -1.240000E+03  -1.240000E+03  -1.240000E+03  -1.240000E+03  -1.236468E+03  -1.204335E+03  -1.168273E+03  -1.136112E+03  -1.109769E+03  -1.090050E+03  -1.056249E+03  -1.018098E+03  -9.927922E+02  -9.958268E+02  -9.938356E+02  -9.922522E+02  -9.783455E+02  -9.635438E+02  -9.590410E+02  -9.358235E+02  -9.005209E+02  -8.592809E+02  -8.135492E+02  -7.692499E+02  -6.640975E+02  -5.558735E+02  -5.428813E+02  -4.983779E+02  -4.458497E+02  -4.202377E+02  -4.277224E+02  -4.072126E+02  -3.602005E+02  -2.760357E+02  -2.229359E+02  -1.124198E+02  -8.212113E+01  -7.342802E+01  -6.207677E+01  -5.641324E+01  -5.462474E+01  -5.277462E+01  -5.208851E+01  -5.288042E+01  -5.363995E+01  -5.495110E+01  -5.511306E+01  -5.434822E+01  -5.659755E+01  -5.759615E+01  -5.426233E+01  -5.262668E+01  -5.250552E+01  -5.293319E+01  -5.469892E+01  -5.502000E+01  -5.533430E+01  -5.595591E+01  -5.694494E+01  -5.854030E+01  -5.900486E+01  -5.811359E+01  -5.052980E+01  -4.223080E+01  -3.410946E+01  -2.810414E+01  -1.287893E+01  -1.183136E+01  -5.999341E+00   5.103411E+01   1.385193E+02   2.039160E+01  -9.640041E+00  -3.377667E+01  -4.928387E+01  -5.678772E+01  -5.889602E+01  -6.554428E+01  -6.832362E+01  -7.237860E+01  -7.263960E+01  -7.255988E+01  -7.209631E+01  -7.192117E+01  -7.210642E+01  -7.099173E+01  -6.772456E+01  -6.383532E+01  -6.869241E+01  -7.601311E+01  -7.854274E+01  -8.028542E+01  -8.095253E+01  -8.197191E+01  -8.237773E+01  -8.236326E+01  -8.199754E+01  -7.159167E+01  -7.043323E+01  -7.528858E+01  -6.943069E+01  -5.578866E+01  -5.288848E+01  -6.967004E+01  -8.613673E+01  -8.637979E+01  -8.566327E+01  -7.089446E+01  -5.903979E+01  -8.695496E+01  -8.782742E+01  -8.759473E+01  -8.750094E+01  -8.667893E+01  -8.678400E+01  -6.062089E+01  -8.072813E+01  -8.650900E+01  -8.622753E+01  -6.756381E+01  -8.471597E+01  -8.045763E+01  -7.245197E+01  -7.605164E+01  -7.672456E+01  -7.452111E+01  -7.289882E+01  -7.136869E+01  -6.509259E+01  -5.923305E+01  -5.175709E+01  -4.715998E+01  -4.574130E+01  -4.601189E+01  -4.534962E+01  -4.474986E+01  -4.352169E+01  -4.575756E+01  -4.657172E+01  -4.648014E+01  -4.879427E+01  -5.035071E+01  -5.934775E+01  -6.612783E+01  -7.528950E+01  -8.022925E+01  -8.392249E+01  -7.125318E+01  -7.157522E+01  -6.572006E+01  -5.776179E+01  -5.820146E+01
  -1.240000E+03  -1.240000E+03  -1.240000E+03  -1.240000E+03  -1.240000E+03  -1.240000E+03  -1.240000E+03  -1.240000E+03  -1.240000E+03  -1.240000E+03  -1.240000E+03  -1.240000E+03  -1.240000E+03  -1.240000E+03  -1.240000E+03  -1.240000E+03  -1.240000E+03  -1.240000E+03  -1.240000E+03  -1.240000E+03  -1.240000E+03  -1.240000E+03  -1.240000E+03  -1.240000E+03  -1.240000E+03  -1.240000E+03  -1.240000E+03  -1.240000E+03  -1.240000E+03  -1.240000E+03  -1.240000E+03  -1.240000E+03  -1.240000E+03  -1.240000E+03  -1.240000E+03  -1.240000E+03  -1.240000E+03  -1.240000E+03  -1.240000E+03  -1.240000E+03  -1.240000E+03  -1.240000E+03  -1.240000E+03  -1.240000E+03  -1.240000E+03  -1.240000E+03  -1.240000E+03  -1.240000E+03  -1.240000E+03  -1.240000E+03  -1.240000E+03  -1.202272E+03  -1.174670E+03  -1.147592E+03  -1.121224E+03  -1.086610E+03  -1.054293E+03  -1.028938E+03  -1.001676E+03  -9.504738E+02  -9.251074E+02  -9.238613E+02  -9.218452E+02  -9.187908E+02  -9.100453E+02  -8.911595E+02  -8.680515E+02  -8.595847E+02  -8.284085E+02  -7.905176E+02  -7.443781E+02  -6.981426E+02  -5.757886E+02  -5.114126E+02  -4.825105E+02  -4.500695E+02  -3.982482E+02  -3.232681E+02  -2.979926E+02  -2.711968E+02  -2.931595E+02  -3.020646E+02  -1.953944E+02  -1.008042E+02  -7.867247E+01  -7.046598E+01  -5.987413E+01  -5.296017E+01  -5.089823E+01  -4.984128E+01  -5.118878E+01  -5.100449E+01  -5.053862E+01  -5.392721E+01  -5.397488E+01  -5.785687E+01  -5.912529E+01  -5.892226E+01  -5.566207E+01  -5.543919E+01  -5.532494E+01  -5.624149E+01  -5.810600E+01  -5.892435E+01  -5.991689E+01  -6.056301E+01  -6.013895E+01  -6.019666E+01  -5.752453E+01  -5.053676E+01  -4.316622E+01  -3.587110E+01  -2.320018E+01  -1.773635E+01  -1.140335E+01  -5.430918E+00   8.863736E+01   1.862717E+02   5.420591E+01  -3.682927E+00  -1.408840E+01  -3.715313E+01  -4.206548E+01  -4.438773E+01  -3.824352E+01  -4.016109E+01  -3.844582E+01  -4.117881E+01  -5.284346E+01  -4.873092E+01  -6.604539E+01  -6.718456E+01  -5.068071E+01  -5.145027E+01  -6.124314E+01  -5.661375E+01  -5.939691E+01  -5.511586E+01  -7.028576E+01  -6.713868E+01  -7.732784E+01  -7.815809E+01  -7.971099E+01  -7.925309E+01  -8.012830E+01  -7.857774E+01  -7.136806E+01  -6.848373E+01  -5.641987E+01  -4.650922E+01  -4.411476E+01  -4.851439E+01  -6.938554E+01  -8.212350E+01  -8.210588E+01  -8.309186E+01  -8.262803E+01  -5.716790E+01  -7.258733E+01  -8.623184E+01  -8.523035E+01  -8.421378E+01  -8.379071E+01  -8.540552E+01  -8.532174E+01  -8.435686E+01  -8.310239E+01  -7.484905E+01  -8.158524E+01  -8.211565E+01  -8.127098E+01  -6.637789E+01  -5.809419E+01  -5.196104E+01  -5.368024E+01  -5.732597E+01  -4.973695E+01  -4.436734E+01  -4.169000E+01  -4.085001E+01  -3.634749E+01  -4.006520E+01  -4.008921E+01  -3.950823E+01  -3.790626E+01  -3.972877E+01  -4.025040E+01  -3.412243E+01  -4.350541E+01  -4.663924E+01  -4.908054E+01  -6.046345E+01  -6.762897E+01  -7.604066E+01  -8.095553E+01  -8.243856E+01  -7.175717E+01  -6.200151E+01  -5.560745E+01  -5.445438E+01