# LPF package for  MODFLOW-2005, generated by Flopy.
         0    -1E+30         0  
         0
         0
   1.000000E+00
         0
         0
INTERNAL               1 (200E15.6) -1 #hk layer 1                    
   1.100000E+00   1.100000E+00   1.100000E+00   1.100000E+00   1.100000E+00   1.100000E+00   1.100000E+00   1.100000E+00   1.100000E+00   1.100000E+00   1.100000E+00   1.100000E+00   1.100000E+00   1.100000E+00   1.100000E+00   1.100000E+00   1.100000E+00   1.100000E+00   1.100000E+00   1.100000E+00   1.100000E+00   1.100000E+00   1.100000E+00   1.100000E+00   1.100000E+00   1.100000E+00   1.100000E+00   1.100000E+00   1.100000E+00   1.100000E+00   1.100000E+00   1.100000E+00   1.100000E+00   1.100000E+00   1.100000E+00   1.100000E+00   1.100000E+00   1.100000E+00   1.100000E+00   1.100000E+00   1.100000E+00   1.100000E+00   1.100000E+00   1.100000E+00   1.100000E+00   1.100000E+00   1.100000E+00   1.100000E+00   1.100000E+00   1.100000E+00   1.100000E+00   1.100000E+00   1.100000E+00   1.100000E+00   1.100000E+00   1.100000E+00   1.100000E+00   1.100000E+00   1.100000E+00   1.100000E+00   1.100000E+00   1.100000E+00   1.100000E+00   1.100000E+00   1.100000E+00   1.100000E+00   1.100000E+00   1.100000E+00   1.100000E+00   1.100000E+00   1.100000E+00   1.100000E+00   1.100000E+00   1.100000E+00   1.100000E+00   1.100000E+00   1.100000E+00   1.100000E+00   1.100000E+00   1.100000E+00   1.100000E+00   1.100000E+00   1.100000E+00   1.100000E+00   1.100000E+00   1.100000E+00   1.100000E+00   1.100000E+00   1.100000E+00   1.100000E+00   1.100000E+00   1.100000E+00   1.100000E+00   1.100000E+00   1.100000E+00   1.100000E+00   1.100000E+00   1.100000E+00   1.100000E+00   1.100000E+00   1.100000E+00   1.100000E+00   1.100000E+00   1.100000E+00   1.100000E+00   1.100000E+00   1.100000E+00   1.100000E+00   1.100000E+00   1.100000E+00   1.100000E+00   1.100000E+00   1.100000E+00   1.100000E+00   1.100000E+00   1.100000E+00   1.100000E+00   1.100000E+00   1.100000E+00   1.100000E+00   1.100000E+00   1.100000E+00   1.100000E+00   1.100000E+00   1.100000E+00   1.100000E+00   1.100000E+00   1.100000E+00   1.100000E+00   1.100000E+00   1.100000E+00   1.100000E+00   1.100000E+00   1.100000E+00   1.100000E+00   1.100000E+00   1.100000E+00   1.100000E+00   1.100000E+00   1.100000E+00   1.100000E+00   1.100000E+00   1.100000E+00   1.100000E+00   1.100000E+00   1.100000E+00   1.100000E+00   1.100000E+00   1.100000E+00   1.100000E+00   1.100000E+00   1.100000E+00   1.100000E+00   1.100000E+00   1.100000E+00   1.100000E+00   1.100000E+00   1.100000E+00   1.100000E+00   1.100000E+00   1.100000E+00   1.100000E+00   1.100000E+00   1.100000E+00   1.100000E+00   1.100000E+00   1.100000E+00   1.100000E+00   1.100000E+00   1.100000E+00   1.100000E+00   1.100000E+00   1.100000E+00   1.100000E+00   1.100000E+00   1.100000E+00   1.100000E+00   1.100000E+00   1.100000E+00   1.100000E+00   1.100000E+00   1.100000E+00   1.100000E+00   1.100000E+00   1.100000E+00   1.100000E+00   1.100000E+00   1.100000E+00   1.100000E+00   1.100000E+00   1.100000E+00   1.100000E+00   1.100000E+00   1.100000E+00   1.100000E+00   1.100000E+00   1.100000E+00   1.100000E+00   1.100000E+00   1.100000E+00
   1.100000E+00   1.100000E+00   1.100000E+00   1.100000E+00   1.100000E+00   1.100000E+00   1.100000E+00   1.100000E+00   1.100000E+00   1.100000E+00   1.100000E+00   1.100000E+00   1.100000E+00   1.100000E+00   1.100000E+00   1.100000E+00   1.100000E+00   1.100000E+00   1.100000E+00   1.100000E+00   1.100000E+00   1.100000E+00   1.100000E+00   1.100000E+00   1.100000E+00   1.100000E+00   1.100000E+00   1.100000E+00   1.100000E+00   1.100000E+00   1.100000E+00   1.100000E+00   1.100000E+00   1.100000E+00   1.100000E+00   1.100000E+00   1.100000E+00   1.100000E+00   1.100000E+00   1.100000E+00   1.100000E+00   1.100000E+00   1.100000E+00   1.100000E+00   1.100000E+00   1.100000E+00   1.100000E+00   1.100000E+00   1.100000E+00   1.100000E+00   1.100000E+00   1.100000E+00   1.100000E+00   1.100000E+00   1.100000E+00   1.100000E+00   1.100000E+00   1.100000E+00   1.100000E+00   1.100000E+00   1.100000E+00   1.100000E+00   1.100000E+00   1.100000E+00   1.100000E+00   1.100000E+00   1.100000E+00   1.100000E+00   1.100000E+00   1.100000E+00   1.100000E+00   1.100000E+00   1.100000E+00   1.100000E+00   1.100000E+00   1.100000E+00   1.100000E+00   1.100000E+00   1.100000E+00   1.100000E+00   1.100000E+00   1.100000E+00   1.100000E+00   1.100000E+00   1.100000E+00   1.100000E+00   1.100000E+00   1.100000E+00   1.100000E+00   1.100000E+00   1.100000E+00   1.100000E+00   1.100000E+00   1.100000E+00   1.100000E+00   1.100000E+00   1.100000E+00   1.100000E+00   1.100000E+00   1.100000E+00   1.100000E+00   1.100000E+00   1.100000E+00   1.100000E+00   1.100000E+00   1.100000E+00   1.100000E+00   1.100000E+00   1.100000E+00   1.100000E+00   1.100000E+00   1.100000E+00   1.100000E+00   1.100000E+00   1.100000E+00   1.100000E+00   1.100000E+00   1.100000E+00   1.100000E+00   1.100000E+00   1.100000E+00   1.100000E+00   1.100000E+00   1.100000E+00   1.100000E+00   1.100000E+00   1.100000E+00   1.100000E+00   1.100000E+00   1.100000E+00   1.100000E+00   1.100000E+00   1.100000E+00   1.100000E+00   1.100000E+00   1.100000E+00   1.100000E+00   1.100000E+00   1.100000E+00   1.100000E+00   1.100000E+00   1.100000E+00   1.100000E+00   1.100000E+00   1.100000E+00   1.100000E+00   1.100000E+00   1.100000E+00   1.100000E+00   1.100000E+00   1.100000E+00   1.100000E+00   1.100000E+00   1.100000E+00   1.100000E+00   1.100000E+00   1.100000E+00   1.100000E+00   1.100000E+00   1.100000E+00   1.100000E+00   1.100000E+00   1.100000E+00   1.100000E+00   1.100000E+00   1.100000E+00   1.100000E+00   1.100000E+00   1.100000E+00   1.100000E+00   1.100000E+00   1.100000E+00   1.100000E+00   1.100000E+00   1.100000E+00   1.100000E+00   1.100000E+00   1.100000E+00   1.100000E+00   1.100000E+00   1.100000E+00   1.100000E+00   1.100000E+00   1.100000E+00   1.100000E+00   1.100000E+00   1.100000E+00   1.100000E+00   1.100000E+00   1.100000E+00   1.100000E+00   1.100000E+00   1.100000E+00   1.100000E+00   1.100000E+00   1.100000E+00   1.100000E+00   1.100000E+00   1.100000E+00   1.100000E+00
   1.100000E+00   1.100000E+00   1.100000E+00   1.100000E+00   1.100000E+00   1.100000E+00   1.100000E+00   1.100000E+00   1.100000E+00   1.100000E+00   1.100000E+00   1.100000E+00   1.100000E+00   1.100000E+00   1.100000E+00   1.100000E+00   1.100000E+00   1.100000E+00   1.100000E+00   1.100000E+00   1.100000E+00   1.100000E+00   1.100000E+00   1.100000E+00   1.100000E+00   1.100000E+00   1.100000E+00   1.100000E+00   1.100000E+00   1.100000E+00   1.100000E+00   1.100000E+00   1.100000E+00   1.100000E+00   1.100000E+00   1.100000E+00   1.100000E+00   1.100000E+00   1.100000E+00   1.100000E+00   1.100000E+00   1.100000E+00   1.100000E+00   1.100000E+00   1.100000E+00   1.100000E+00   1.100000E+00   1.100000E+00   1.100000E+00   1.100000E+00   1.100000E+00   1.100000E+00   1.100000E+00   1.100000E+00   1.100000E+00   1.100000E+00   1.100000E+00   1.100000E+00   1.100000E+00   1.100000E+00   1.100000E+00   1.100000E+00   1.100000E+00   1.100000E+00   1.100000E+00   1.100000E+00   1.100000E+00   1.100000E+00   1.100000E+00   1.100000E+00   1.100000E+00   1.100000E+00   1.100000E+00   1.100000E+00   1.100000E+00   1.100000E+00   1.100000E+00   1.100000E+00   1.100000E+00   1.100000E+00   1.100000E+00   1.100000E+00   1.100000E+00   1.100000E+00   1.100000E+00   1.100000E+00   1.100000E+00   1.100000E+00   1.100000E+00   1.100000E+00   1.100000E+00   1.100000E+00   1.100000E+00   1.100000E+00   1.100000E+00   1.100000E+00   1.100000E+00   1.100000E+00   1.100000E+00   1.100000E+00   1.100000E+00   1.100000E+00   1.100000E+00   1.100000E+00   1.100000E+00   1.100000E+00   1.100000E+00   1.100000E+00   1.100000E+00   1.100000E+00   1.100000E+00   1.100000E+00   1.100000E+00   1.100000E+00   1.100000E+00   1.100000E+00   1.100000E+00   1.100000E+00   1.100000E+00   1.100000E+00   1.100000E+00   1.100000E+00   1.100000E+00   1.100000E+00   1.100000E+00   1.100000E+00   1.100000E+00   1.100000E+00   1.100000E+00   1.100000E+00   1.100000E+00   1.100000E+00   1.100000E+00   1.100000E+00   1.100000E+00   1.100000E+00   1.100000E+00   1.100000E+00   1.100000E+00   1.100000E+00   1.100000E+00   1.100000E+00   1.100000E+00   1.100000E+00   1.100000E+00   1.100000E+00   1.100000E+00   1.100000E+00   1.100000E+00   1.100000E+00   1.100000E+00   1.100000E+00   1.100000E+00   1.100000E+00   1.100000E+00   1.100000E+00   1.100000E+00   1.100000E+00   1.100000E+00   1.100000E+00   1.100000E+00   1.100000E+00   1.100000E+00   1.100000E+00   1.100000E+00   1.100000E+00   1.100000E+00   1.100000E+00   1.100000E+00   1.100000E+00   1.100000E+00   1.100000E+00   1.100000E+00   1.100000E+00   1.100000E+00   1.100000E+00   1.100000E+00   1.100000E+00   1.100000E+00   1.100000E+00   1.100000E+00   1.100000E+00   1.100000E+00   1.100000E+00   1.100000E+00   1.100000E+00   1.100000E+00   1.100000E+00   1.100000E+00   1.100000E+00   1.100000E+00   1.100000E+00   1.100000E+00   1.100000E+00   1.100000E+00   1.100000E+00   1.100000E+00   1.100000E+00   1.100000E+00   1.100000E+00
   1.100000E+00   1.100000E+00   1.100000E+00   1.100000E+00   1.100000E+00   1.100000E+00   1.100000E+00   1.100000E+00   1.100000E+00   1.100000E+00   1.100000E+00   1.100000E+00   1.100000E+00   1.100000E+00   1.100000E+00   1.100000E+00   1.100000E+00   1.100000E+00   1.100000E+00   1.100000E+00   1.100000E+00   1.100000E+00   1.100000E+00   1.100000E+00   1.100000E+00   1.100000E+00   1.100000E+00   1.100000E+00   1.100000E+00   1.100000E+00   1.100000E+00   1.100000E+00   1.100000E+00   1.100000E+00   1.100000E+00   1.100000E+00   1.100000E+00   1.100000E+00   1.100000E+00   1.100000E+00   1.100000E+00   1.100000E+00   1.100000E+00   1.100000E+00   1.100000E+00   1.100000E+00   1.100000E+00   1.100000E+00   1.100000E+00   1.100000E+00   1.100000E+00   1.100000E+00   1.100000E+00   1.100000E+00   1.100000E+00   1.100000E+00   1.100000E+00   1.100000E+00   1.100000E+00   1.100000E+00   1.100000E+00   1.100000E+00   1.100000E+00   1.100000E+00   1.100000E+00   1.100000E+00   1.100000E+00   1.100000E+00   1.100000E+00   1.100000E+00   1.100000E+00   1.100000E+00   1.100000E+00   1.100000E+00   1.100000E+00   1.100000E+00   1.100000E+00   1.100000E+00   1.100000E+00   1.100000E+00   1.100000E+00   1.100000E+00   1.100000E+00   1.100000E+00   1.100000E+00   1.100000E+00   1.100000E+00   1.100000E+00   1.100000E+00   1.100000E+00   1.100000E+00   1.100000E+00   1.100000E+00   1.100000E+00   1.100000E+00   1.100000E+00   1.100000E+00   1.100000E+00   1.100000E+00   1.100000E+00   1.100000E+00   1.100000E+00   1.100000E+00   1.100000E+00   1.100000E+00   1.100000E+00   1.100000E+00   1.100000E+00   1.100000E+00   1.100000E+00   1.100000E+00   1.100000E+00   1.100000E+00   1.100000E+00   1.100000E+00   1.100000E+00   1.100000E+00   1.100000E+00   1.100000E+00   1.100000E+00   1.100000E+00   1.100000E+00   1.100000E+00   1.100000E+00   1.100000E+00   1.100000E+00   1.100000E+00   1.100000E+00   1.100000E+00   1.100000E+00   1.100000E+00   1.100000E+00   1.100000E+00   1.100000E+00   1.100000E+00   1.100000E+00   1.100000E+00   1.100000E+00   1.100000E+00   1.100000E+00   1.100000E+00   1.100000E+00   1.100000E+00   1.100000E+00   1.100000E+00   1.100000E+00   1.100000E+00   1.100000E+00   1.100000E+00   1.100000E+00   1.100000E+00   1.100000E+00   1.100000E+00   1.100000E+00   1.100000E+00   1.100000E+00   1.100000E+00   1.100000E+00   1.100000E+00   1.100000E+00   1.100000E+00   1.100000E+00   1.100000E+00   1.100000E+00   1.100000E+00   1.100000E+00   1.100000E+00   1.100000E+00   1.100000E+00   1.100000E+00   1.100000E+00   1.100000E+00   1.100000E+00   1.100000E+00   1.100000E+00   1.100000E+00   1.100000E+00   1.100000E+00   1.100000E+00   1.100000E+00   1.100000E+00   1.100000E+00   1.100000E+00   1.100000E+00   1.100000E+00   1.100000E+00   1.100000E+00   1.100000E+00   1.100000E+00   1.100000E+00   1.100000E+00   1.100000E+00   1.100000E+00   1.100000E+00   1.100000E+00   1.100000E+00   1.100000E+00   1.100000E+00   1.100000E+00   1.100000E+00
   1.100000E+00   1.100000E+00   1.100000E+00   1.100000E+00   1.100000E+00   1.100000E+00   1.100000E+00   1.100000E+00   1.100000E+00   1.100000E+00   1.100000E+00   1.100000E+00   1.100000E+00   1.100000E+00   1.100000E+00   1.100000E+00   1.100000E+00   1.100000E+00   1.100000E+00   1.100000E+00   1.100000E+00   1.100000E+00   1.100000E+00   1.100000E+00   1.100000E+00   1.100000E+00   1.100000E+00   1.100000E+00   1.100000E+00   1.100000E+00   1.100000E+00   1.100000E+00   1.100000E+00   1.100000E+00   1.100000E+00   1.100000E+00   1.100000E+00   1.100000E+00   1.100000E+00   1.100000E+00   1.100000E+00   1.100000E+00   1.100000E+00   1.100000E+00   1.100000E+00   1.100000E+00   1.100000E+00   1.100000E+00   1.100000E+00   1.100000E+00   1.100000E+00   1.100000E+00   1.100000E+00   1.100000E+00   1.100000E+00   1.100000E+00   1.100000E+00   1.100000E+00   1.100000E+00   1.100000E+00   1.100000E+00   1.100000E+00   1.100000E+00   1.100000E+00   1.100000E+00   1.100000E+00   1.100000E+00   1.100000E+00   1.100000E+00   1.100000E+00   1.100000E+00   1.100000E+00   1.100000E+00   1.100000E+00   1.100000E+00   1.100000E+00   1.100000E+00   1.100000E+00   1.100000E+00   1.100000E+00   1.100000E+00   1.100000E+00   1.100000E+00   1.100000E+00   1.100000E+00   1.100000E+00   1.100000E+00   1.100000E+00   1.100000E+00   1.100000E+00   1.100000E+00   1.100000E+00   1.100000E+00   1.100000E+00   1.100000E+00   1.100000E+00   1.100000E+00   1.100000E+00   1.100000E+00   1.100000E+00   1.100000E+00   1.100000E+00   1.100000E+00   1.100000E+00   1.100000E+00   1.100000E+00   1.100000E+00   1.100000E+00   1.100000E+00   1.100000E+00   1.100000E+00   1.100000E+00   1.100000E+00   1.100000E+00   1.100000E+00   1.100000E+00   1.100000E+00   1.100000E+00   1.100000E+00   1.100000E+00   1.100000E+00   1.100000E+00   1.100000E+00   1.100000E+00   1.100000E+00   1.100000E+00   1.100000E+00   1.100000E+00   1.100000E+00   1.100000E+00   1.100000E+00   1.100000E+00   1.100000E+00   1.100000E+00   1.100000E+00   1.100000E+00   1.100000E+00   1.100000E+00   1.100000E+00   1.100000E+00   1.100000E+00   1.100000E+00   1.100000E+00   1.100000E+00   1.100000E+00   1.100000E+00   1.100000E+00   1.100000E+00   1.100000E+00   1.100000E+00   1.100000E+00   1.100000E+00   1.100000E+00   1.100000E+00   1.100000E+00   1.100000E+00   1.100000E+00   1.100000E+00   1.100000E+00   1.100000E+00   1.100000E+00   1.100000E+00   1.100000E+00   1.100000E+00   1.100000E+00   1.100000E+00   1.100000E+00   1.100000E+00   1.100000E+00   1.100000E+00   1.100000E+00   1.100000E+00   1.100000E+00   1.100000E+00   1.100000E+00   1.100000E+00   1.100000E+00   1.100000E+00   1.100000E+00   1.100000E+00   1.100000E+00   1.100000E+00   1.100000E+00   1.100000E+00   1.100000E+00   1.100000E+00   1.100000E+00   1.100000E+00   1.100000E+00   1.100000E+00   1.100000E+00   1.100000E+00   1.100000E+00   1.100000E+00   1.100000E+00   1.100000E+00   1.100000E+00   1.100000E+00   1.100000E+00   1.100000E+00
   1.100000E+00   1.100000E+00   1.100000E+00   1.100000E+00   1.100000E+00   1.100000E+00   1.100000E+00   1.100000E+00   1.100000E+00   1.100000E+00   1.100000E+00   1.100000E+00   1.100000E+00   1.100000E+00   1.100000E+00   1.100000E+00   1.100000E+00   1.100000E+00   1.100000E+00   1.100000E+00   1.100000E+00   1.100000E+00   1.100000E+00   1.100000E+00   1.100000E+00   1.100000E+00   1.100000E+00   1.100000E+00   1.100000E+00   1.100000E+00   1.100000E+00   1.100000E+00   1.100000E+00   1.100000E+00   1.100000E+00   1.100000E+00   1.100000E+00   1.100000E+00   1.100000E+00   1.100000E+00   1.100000E+00   1.100000E+00   1.100000E+00   1.100000E+00   1.100000E+00   1.100000E+00   1.100000E+00   1.100000E+00   1.100000E+00   1.100000E+00   1.100000E+00   1.100000E+00   1.100000E+00   1.100000E+00   1.100000E+00   1.100000E+00   1.100000E+00   1.100000E+00   1.100000E+00   1.100000E+00   1.100000E+00   1.100000E+00   1.100000E+00   1.100000E+00   1.100000E+00   1.100000E+00   1.100000E+00   1.100000E+00   1.100000E+00   1.100000E+00   1.100000E+00   1.100000E+00   1.100000E+00   1.100000E+00   1.100000E+00   1.100000E+00   1.100000E+00   1.100000E+00   1.100000E+00   1.100000E+00   1.100000E+00   1.100000E+00   1.100000E+00   1.100000E+00   1.100000E+00   1.100000E+00   1.100000E+00   1.100000E+00   1.100000E+00   1.100000E+00   1.100000E+00   1.100000E+00   1.100000E+00   1.100000E+00   1.100000E+00   1.100000E+00   1.100000E+00   1.100000E+00   1.100000E+00   1.100000E+00   1.100000E+00   1.100000E+00   1.100000E+00   1.100000E+00   1.100000E+00   1.100000E+00   1.100000E+00   1.100000E+00   1.100000E+00   1.100000E+00   1.100000E+00   1.100000E+00   1.100000E+00   1.100000E+00   1.100000E+00   1.100000E+00   1.100000E+00   1.100000E+00   1.100000E+00   3.170298E+00   1.100000E+00   1.100000E+00   1.100000E+00   1.100000E+00   1.100000E+00   1.100000E+00   1.100000E+00   1.100000E+00   1.100000E+00   1.100000E+00   1.100000E+00   1.100000E+00   1.100000E+00   1.100000E+00   1.100000E+00   1.100000E+00   1.100000E+00   1.100000E+00   1.100000E+00   1.100000E+00   1.100000E+00   1.100000E+00   1.100000E+00   1.100000E+00   1.100000E+00   1.100000E+00   1.100000E+00   1.100000E+00   1.100000E+00   1.100000E+00   1.100000E+00   1.100000E+00   1.100000E+00   1.100000E+00   1.100000E+00   1.100000E+00   1.100000E+00   1.100000E+00   1.100000E+00   1.100000E+00   1.100000E+00   1.100000E+00   1.100000E+00   1.100000E+00   1.100000E+00   1.100000E+00   1.100000E+00   1.100000E+00   1.100000E+00   1.100000E+00   1.100000E+00   1.100000E+00   1.100000E+00   1.100000E+00   1.100000E+00   1.100000E+00   1.100000E+00   1.100000E+00   1.100000E+00   1.100000E+00   1.100000E+00   1.100000E+00   1.100000E+00   1.100000E+00   1.100000E+00   1.100000E+00   1.100000E+00   1.100000E+00   1.100000E+00   1.100000E+00   1.100000E+00   1.100000E+00   1.100000E+00   1.100000E+00   1.100000E+00   1.100000E+00   1.100000E+00   1.100000E+00   1.100000E+00   1.100000E+00
   1.100000E+00   1.100000E+00   1.100000E+00   1.100000E+00   1.100000E+00   1.100000E+00   1.100000E+00   1.100000E+00   1.100000E+00   1.100000E+00   1.100000E+00   1.100000E+00   1.100000E+00   1.100000E+00   1.100000E+00   1.100000E+00   1.100000E+00   1.100000E+00   1.100000E+00   1.100000E+00   1.100000E+00   1.100000E+00   1.100000E+00   1.100000E+00   1.100000E+00   1.100000E+00   1.100000E+00   1.100000E+00   1.100000E+00   1.100000E+00   1.100000E+00   1.100000E+00   1.100000E+00   1.100000E+00   1.100000E+00   1.100000E+00   1.100000E+00   1.100000E+00   1.100000E+00   1.100000E+00   1.100000E+00   1.100000E+00   1.100000E+00   1.100000E+00   1.100000E+00   1.100000E+00   1.100000E+00   1.100000E+00   1.100000E+00   1.100000E+00   1.100000E+00   1.100000E+00   1.100000E+00   1.100000E+00   1.100000E+00   1.100000E+00   1.100000E+00   1.100000E+00   1.100000E+00   1.100000E+00   1.100000E+00   1.100000E+00   1.100000E+00   1.100000E+00   1.100000E+00   1.100000E+00   1.100000E+00   1.100000E+00   1.100000E+00   1.100000E+00   1.100000E+00   1.100000E+00   1.100000E+00   1.100000E+00   1.100000E+00   1.100000E+00   1.100000E+00   1.100000E+00   1.100000E+00   1.100000E+00   1.100000E+00   1.100000E+00   1.100000E+00   1.100000E+00   1.100000E+00   1.100000E+00   1.100000E+00   1.100000E+00   1.100000E+00   1.100000E+00   1.100000E+00   1.100000E+00   1.100000E+00   1.100000E+00   1.100000E+00   1.100000E+00   1.100000E+00   1.100000E+00   1.100000E+00   1.100000E+00   1.100000E+00   1.100000E+00   1.100000E+00   1.100000E+00   1.100000E+00   1.100000E+00   1.100000E+00   1.100000E+00   1.100000E+00   1.100000E+00   1.100000E+00   1.100000E+00   1.100000E+00   1.100000E+00   1.100000E+00   1.100000E+00   1.100000E+00   1.100000E+00   3.182438E+00   3.229537E+00   1.100000E+00   1.100000E+00   1.100000E+00   1.100000E+00   1.100000E+00   1.100000E+00   1.100000E+00   1.100000E+00   1.100000E+00   1.100000E+00   1.100000E+00   1.100000E+00   1.100000E+00   1.100000E+00   1.100000E+00   1.100000E+00   1.100000E+00   1.100000E+00   1.100000E+00   1.100000E+00   1.100000E+00   1.100000E+00   1.100000E+00   1.100000E+00   1.100000E+00   1.100000E+00   1.100000E+00   1.100000E+00   1.100000E+00   1.100000E+00   1.100000E+00   1.100000E+00   1.100000E+00   1.100000E+00   1.100000E+00   1.100000E+00   1.100000E+00   1.100000E+00   1.100000E+00   1.100000E+00   1.100000E+00   1.100000E+00   1.100000E+00   1.100000E+00   1.100000E+00   1.100000E+00   1.100000E+00   1.100000E+00   1.100000E+00   1.100000E+00   1.100000E+00   1.100000E+00   1.100000E+00   1.100000E+00   1.100000E+00   1.100000E+00   1.100000E+00   1.100000E+00   1.100000E+00   1.100000E+00   1.100000E+00   1.100000E+00   1.100000E+00   1.100000E+00   1.100000E+00   1.100000E+00   1.100000E+00   1.100000E+00   1.100000E+00   1.100000E+00   1.100000E+00   1.100000E+00   1.100000E+00   1.100000E+00   1.100000E+00   1.100000E+00   1.100000E+00   1.100000E+00   1.100000E+00   1.100000E+00
   1.100000E+00   1.100000E+00   1.100000E+00   1.100000E+00   1.100000E+00   1.100000E+00   1.100000E+00   1.100000E+00   1.100000E+00   1.100000E+00   1.100000E+00   1.100000E+00   1.100000E+00   1.100000E+00   1.100000E+00   1.100000E+00   1.100000E+00   1.100000E+00   1.100000E+00   1.100000E+00   1.100000E+00   1.100000E+00   1.100000E+00   1.100000E+00   1.100000E+00   1.100000E+00   1.100000E+00   1.100000E+00   1.100000E+00   1.100000E+00   1.100000E+00   1.100000E+00   1.100000E+00   1.100000E+00   1.100000E+00   1.100000E+00   1.100000E+00   1.100000E+00   1.100000E+00   1.100000E+00   1.100000E+00   1.100000E+00   1.100000E+00   1.100000E+00   1.100000E+00   1.100000E+00   1.100000E+00   1.100000E+00   1.100000E+00   1.100000E+00   1.100000E+00   1.100000E+00   1.100000E+00   1.100000E+00   1.100000E+00   1.100000E+00   1.100000E+00   1.100000E+00   1.100000E+00   1.100000E+00   1.100000E+00   1.100000E+00   1.100000E+00   1.100000E+00   1.100000E+00   1.100000E+00   1.100000E+00   1.100000E+00   1.100000E+00   1.100000E+00   1.100000E+00   1.100000E+00   1.100000E+00   1.100000E+00   1.100000E+00   1.100000E+00   1.100000E+00   1.100000E+00   1.100000E+00   1.100000E+00   1.100000E+00   1.100000E+00   1.100000E+00   1.100000E+00   1.100000E+00   1.100000E+00   1.100000E+00   1.100000E+00   1.100000E+00   1.100000E+00   1.100000E+00   1.100000E+00   1.100000E+00   1.100000E+00   1.100000E+00   1.100000E+00   1.100000E+00   1.100000E+00   1.100000E+00   1.100000E+00   1.100000E+00   1.100000E+00   1.100000E+00   1.100000E+00   1.100000E+00   1.100000E+00   1.100000E+00   1.100000E+00   1.100000E+00   1.100000E+00   1.100000E+00   1.100000E+00   1.100000E+00   1.100000E+00   1.100000E+00   1.100000E+00   3.350994E+00   3.312765E+00   3.279672E+00   3.262819E+00   1.100000E+00   1.100000E+00   1.100000E+00   1.100000E+00   1.100000E+00   1.100000E+00   1.100000E+00   1.100000E+00   1.100000E+00   1.100000E+00   1.100000E+00   1.100000E+00   1.100000E+00   1.100000E+00   1.100000E+00   1.100000E+00   1.100000E+00   1.100000E+00   1.100000E+00   1.100000E+00   1.100000E+00   1.100000E+00   1.100000E+00   1.100000E+00   1.100000E+00   1.100000E+00   1.100000E+00   1.100000E+00   1.100000E+00   1.100000E+00   1.100000E+00   1.100000E+00   1.100000E+00   1.100000E+00   1.100000E+00   1.100000E+00   1.100000E+00   1.100000E+00   1.100000E+00   1.100000E+00   1.100000E+00   1.100000E+00   1.100000E+00   1.100000E+00   1.100000E+00   1.100000E+00   1.100000E+00   1.100000E+00   1.100000E+00   1.100000E+00   1.100000E+00   1.100000E+00   1.100000E+00   1.100000E+00   1.100000E+00   1.100000E+00   1.100000E+00   1.100000E+00   1.100000E+00   1.100000E+00   1.100000E+00   1.100000E+00   1.100000E+00   1.100000E+00   1.100000E+00   1.100000E+00   1.100000E+00   1.100000E+00   1.100000E+00   1.100000E+00   1.100000E+00   1.100000E+00   1.100000E+00   1.100000E+00   1.100000E+00   1.100000E+00   1.100000E+00   1.100000E+00   1.100000E+00   1.100000E+00
   1.100000E+00   1.100000E+00   1.100000E+00   1.100000E+00   1.100000E+00   1.100000E+00   1.100000E+00   1.100000E+00   1.100000E+00   1.100000E+00   1.100000E+00   1.100000E+00   1.100000E+00   1.100000E+00   1.100000E+00   1.100000E+00   1.100000E+00   1.100000E+00   1.100000E+00   1.100000E+00   1.100000E+00   1.100000E+00   1.100000E+00   1.100000E+00   1.100000E+00   1.100000E+00   1.100000E+00   1.100000E+00   1.100000E+00   1.100000E+00   1.100000E+00   1.100000E+00   1.100000E+00   1.100000E+00   1.100000E+00   1.100000E+00   1.100000E+00   1.100000E+00   1.100000E+00   1.100000E+00   1.100000E+00   1.100000E+00   1.100000E+00   1.100000E+00   1.100000E+00   1.100000E+00   1.100000E+00   1.100000E+00   1.100000E+00   1.100000E+00   1.100000E+00   1.100000E+00   1.100000E+00   1.100000E+00   1.100000E+00   1.100000E+00   1.100000E+00   1.100000E+00   1.100000E+00   1.100000E+00   1.100000E+00   1.100000E+00   1.100000E+00   1.100000E+00   1.100000E+00   1.100000E+00   1.100000E+00   1.100000E+00   1.100000E+00   1.100000E+00   1.100000E+00   1.100000E+00   1.100000E+00   1.100000E+00   1.100000E+00   1.100000E+00   1.100000E+00   1.100000E+00   1.100000E+00   1.100000E+00   1.100000E+00   1.100000E+00   1.100000E+00   1.100000E+00   1.100000E+00   1.100000E+00   1.100000E+00   1.100000E+00   1.100000E+00   1.100000E+00   1.100000E+00   1.100000E+00   1.100000E+00   1.100000E+00   1.100000E+00   1.100000E+00   1.100000E+00   1.100000E+00   1.100000E+00   1.100000E+00   1.100000E+00   1.100000E+00   1.100000E+00   1.100000E+00   1.100000E+00   1.100000E+00   1.100000E+00   1.100000E+00   1.100000E+00   1.100000E+00   1.100000E+00   1.100000E+00   1.100000E+00   1.100000E+00   1.100000E+00   3.523989E+00   3.471036E+00   3.394046E+00   3.301917E+00   1.100000E+00   1.100000E+00   1.100000E+00   1.100000E+00   1.100000E+00   1.100000E+00   1.100000E+00   1.100000E+00   1.100000E+00   1.100000E+00   1.100000E+00   1.100000E+00   1.100000E+00   1.100000E+00   1.100000E+00   1.100000E+00   1.100000E+00   1.100000E+00   1.100000E+00   1.100000E+00   1.100000E+00   1.100000E+00   1.100000E+00   1.100000E+00   1.100000E+00   1.100000E+00   1.100000E+00   1.100000E+00   1.100000E+00   1.100000E+00   1.100000E+00   1.100000E+00   1.100000E+00   1.100000E+00   1.100000E+00   1.100000E+00   1.100000E+00   1.100000E+00   1.100000E+00   1.100000E+00   1.100000E+00   1.100000E+00   1.100000E+00   1.100000E+00   1.100000E+00   1.100000E+00   1.100000E+00   1.100000E+00   1.100000E+00   1.100000E+00   1.100000E+00   1.100000E+00   1.100000E+00   1.100000E+00   1.100000E+00   1.100000E+00   1.100000E+00   1.100000E+00   1.100000E+00   1.100000E+00   1.100000E+00   1.100000E+00   1.100000E+00   1.100000E+00   1.100000E+00   1.100000E+00   1.100000E+00   1.100000E+00   1.100000E+00   1.100000E+00   1.100000E+00   1.100000E+00   1.100000E+00   1.100000E+00   1.100000E+00   1.100000E+00   1.100000E+00   1.100000E+00   1.100000E+00   1.100000E+00   1.100000E+00