# LPF package for  MODFLOW-2005, generated by Flopy.
         0    -1E+30         0  
         0
         0
   1.000000E+00
         0
         0
INTERNAL               1 (200E15.6) -1 #hk layer 1                    
   3.962847E+00   3.935374E+00   3.904771E+00   3.862795E+00   3.834080E+00   3.813678E+00   3.802337E+00   3.789600E+00   3.787981E+00   3.761707E+00   3.732252E+00   3.689196E+00   3.641930E+00   3.585487E+00   3.527859E+00   3.488932E+00   3.471408E+00   3.475720E+00   3.487981E+00   3.515089E+00   3.555612E+00   3.610350E+00   3.676389E+00   3.769910E+00   3.856606E+00   3.942797E+00   4.024168E+00   4.102742E+00   4.173484E+00   4.228974E+00   4.263554E+00   4.278221E+00   4.262523E+00   4.208787E+00   4.144150E+00   4.061057E+00   3.983661E+00   3.902496E+00   3.837326E+00   3.780418E+00   3.734373E+00   3.705032E+00   3.677669E+00   3.641474E+00   3.612159E+00   3.596231E+00   3.597871E+00   3.596436E+00   3.597051E+00   3.587679E+00   3.565896E+00   3.538498E+00   3.502645E+00   3.460970E+00   3.425241E+00   3.380499E+00   3.348188E+00   3.330757E+00   3.342727E+00   3.384916E+00   3.438027E+00   3.508792E+00   3.589130E+00   3.667681E+00   3.725041E+00   3.774307E+00   3.803888E+00   3.824119E+00   3.826061E+00   3.806108E+00   3.768662E+00   3.724253E+00   3.683859E+00   3.658785E+00   3.654668E+00   3.647096E+00   3.655359E+00   3.651665E+00   3.644481E+00   3.635070E+00   3.635677E+00   3.623658E+00   3.611314E+00   3.599357E+00   3.582952E+00   3.572095E+00   3.569866E+00   3.582187E+00   3.598159E+00   3.648968E+00   3.714860E+00   3.790893E+00   3.863297E+00   3.918368E+00   3.938126E+00   3.934371E+00   3.911890E+00   3.868266E+00   3.820293E+00   3.755328E+00   3.688881E+00   3.614424E+00   3.538862E+00   3.483548E+00   3.436798E+00   3.398590E+00   3.375405E+00   3.354298E+00   3.352348E+00   3.340825E+00   3.328559E+00   3.308872E+00   3.299292E+00   3.304979E+00   3.313829E+00   3.343990E+00   3.403400E+00   3.481908E+00   3.577420E+00   3.681890E+00   3.773121E+00   3.873361E+00   3.962984E+00   4.047292E+00   4.126995E+00   4.192488E+00   4.268076E+00   4.325025E+00   4.356633E+00   4.372907E+00   4.360084E+00   4.335437E+00   4.308229E+00   4.267446E+00   4.212825E+00   4.168902E+00   4.110889E+00   4.072153E+00   4.050248E+00   4.051370E+00   4.074056E+00   4.106611E+00   4.158588E+00   4.213101E+00   4.279294E+00   4.348881E+00   4.431168E+00   4.524972E+00   4.590524E+00   4.616780E+00   4.595726E+00   4.545266E+00   4.457836E+00   4.370930E+00   4.269265E+00   4.164027E+00   4.064047E+00   3.962120E+00   3.866500E+00   3.760698E+00   3.673495E+00   3.572987E+00   3.493733E+00   3.439917E+00   3.401789E+00   3.385029E+00   3.389094E+00   3.415197E+00   3.461425E+00   3.544970E+00   3.647858E+00   3.756984E+00   3.870759E+00   3.969779E+00   4.043654E+00   4.094903E+00   4.129478E+00   4.160858E+00   4.187335E+00   4.202354E+00   4.222144E+00   4.238213E+00   4.251586E+00   4.250274E+00   4.238783E+00   4.202077E+00   4.152986E+00   4.089835E+00   4.031969E+00   3.993540E+00   3.975473E+00   3.977305E+00   3.985219E+00   4.000247E+00   4.005085E+00   4.010140E+00   4.009835E+00   3.991093E+00   3.983114E+00   3.979248E+00
   3.931186E+00   3.887915E+00   3.830053E+00   3.762930E+00   3.694918E+00   3.655925E+00   3.623951E+00   3.600186E+00   3.585918E+00   3.569491E+00   3.518587E+00   3.459303E+00   3.366586E+00   3.277913E+00   3.189288E+00   3.124563E+00   3.088324E+00   3.089665E+00   3.109093E+00   3.146167E+00   3.207169E+00   3.295056E+00   3.409130E+00   3.546441E+00   3.701588E+00   3.869705E+00   4.044505E+00   4.213192E+00   4.364138E+00   4.477037E+00   4.542934E+00   4.578674E+00   4.539577E+00   4.450101E+00   4.313953E+00   4.167038E+00   4.016985E+00   3.866519E+00   3.721295E+00   3.617277E+00   3.532114E+00   3.477608E+00   3.426652E+00   3.378179E+00   3.326949E+00   3.299433E+00   3.291445E+00   3.285570E+00   3.282894E+00   3.269516E+00   3.241994E+00   3.198157E+00   3.151993E+00   3.091676E+00   3.019286E+00   2.953109E+00   2.904845E+00   2.881495E+00   2.897038E+00   2.956060E+00   3.048530E+00   3.177707E+00   3.316734E+00   3.439673E+00   3.541189E+00   3.620508E+00   3.660068E+00   3.671134E+00   3.654731E+00   3.607932E+00   3.536915E+00   3.463104E+00   3.394836E+00   3.346557E+00   3.318156E+00   3.305614E+00   3.306632E+00   3.317125E+00   3.330613E+00   3.344528E+00   3.346051E+00   3.339543E+00   3.320156E+00   3.291409E+00   3.255391E+00   3.223949E+00   3.214114E+00   3.223096E+00   3.256800E+00   3.326632E+00   3.449495E+00   3.571582E+00   3.708111E+00   3.808258E+00   3.861034E+00   3.866103E+00   3.817721E+00   3.748415E+00   3.659153E+00   3.553375E+00   3.436335E+00   3.309469E+00   3.182912E+00   3.082120E+00   3.002785E+00   2.939568E+00   2.899016E+00   2.875566E+00   2.857836E+00   2.842609E+00   2.823110E+00   2.810505E+00   2.814512E+00   2.824020E+00   2.855779E+00   2.913278E+00   2.997001E+00   3.108415E+00   3.251763E+00   3.408233E+00   3.570978E+00   3.748520E+00   3.919933E+00   4.086875E+00   4.236229E+00   4.381674E+00   4.511533E+00   4.607942E+00   4.648517E+00   4.658972E+00   4.639001E+00   4.593496E+00   4.518952E+00   4.415469E+00   4.309348E+00   4.212268E+00   4.139837E+00   4.086413E+00   4.073460E+00   4.088278E+00   4.138617E+00   4.222433E+00   4.297079E+00   4.406672E+00   4.525645E+00   4.680807E+00   4.854488E+00   5.037810E+00   5.182554E+00   5.230364E+00   5.195408E+00   5.072657E+00   4.905231E+00   4.710473E+00   4.497440E+00   4.284695E+00   4.077233E+00   3.883525E+00   3.689416E+00   3.513035E+00   3.338979E+00   3.194783E+00   3.066906E+00   2.986025E+00   2.935600E+00   2.910792E+00   2.919073E+00   2.971670E+00   3.068406E+00   3.208148E+00   3.374210E+00   3.558493E+00   3.746855E+00   3.910014E+00   4.045956E+00   4.142547E+00   4.213486E+00   4.270816E+00   4.313109E+00   4.347899E+00   4.379109E+00   4.414423E+00   4.424710E+00   4.419903E+00   4.381759E+00   4.328451E+00   4.247554E+00   4.152850E+00   4.068251E+00   4.004791E+00   4.003883E+00   4.018754E+00   4.044748E+00   4.059463E+00   4.057865E+00   4.054646E+00   4.036718E+00   4.011621E+00   3.986603E+00   3.982258E+00
   3.911554E+00   3.831717E+00   3.749414E+00   3.665699E+00   3.598842E+00   3.527961E+00   3.482541E+00   3.448654E+00   3.426836E+00   3.390289E+00   3.342705E+00   3.261946E+00   3.174936E+00   3.070827E+00   2.974852E+00   2.897491E+00   2.853487E+00   2.846175E+00   2.866421E+00   2.912714E+00   2.976719E+00   3.079431E+00   3.216044E+00   3.387851E+00   3.577313E+00   3.793668E+00   4.038285E+00   4.276891E+00   4.495717E+00   4.657716E+00   4.768527E+00   4.801616E+00   4.762971E+00   4.652813E+00   4.500689E+00   4.293075E+00   4.082433E+00   3.863277E+00   3.680082E+00   3.528685E+00   3.416041E+00   3.325315E+00   3.259120E+00   3.194490E+00   3.126910E+00   3.063666E+00   3.039046E+00   3.013998E+00   3.012040E+00   3.011000E+00   3.004451E+00   2.979269E+00   2.953176E+00   2.897875E+00   2.834802E+00   2.772751E+00   2.717969E+00   2.692028E+00   2.709913E+00   2.779349E+00   2.893878E+00   3.038777E+00   3.197122E+00   3.347979E+00   3.465434E+00   3.536881E+00   3.565792E+00   3.555076E+00   3.505641E+00   3.429868E+00   3.323870E+00   3.222701E+00   3.129743E+00   3.062947E+00   3.020950E+00   3.000645E+00   3.008530E+00   3.033315E+00   3.074439E+00   3.110951E+00   3.130913E+00   3.131310E+00   3.116478E+00   3.073993E+00   3.034146E+00   2.993128E+00   2.964792E+00   2.957584E+00   2.984410E+00   3.066665E+00   3.196290E+00   3.362164E+00   3.523921E+00   3.668010E+00   3.739013E+00   3.748730E+00   3.708067E+00   3.630062E+00   3.534070E+00   3.403710E+00   3.256076E+00   3.102065E+00   2.953258E+00   2.817412E+00   2.714509E+00   2.633889E+00   2.576751E+00   2.543689E+00   2.525904E+00   2.512299E+00   2.502383E+00   2.501178E+00   2.520511E+00   2.552439E+00   2.595318E+00   2.671932E+00   2.769100E+00   2.892458E+00   3.055977E+00   3.236882E+00   3.429734E+00   3.652712E+00   3.877871E+00   4.097632E+00   4.299221E+00   4.472074E+00   4.632946E+00   4.738326E+00   4.800273E+00   4.799276E+00   4.754639E+00   4.666438E+00   4.541312E+00   4.402812E+00   4.262153E+00   4.144668E+00   4.046690E+00   4.001745E+00   3.997337E+00   4.042485E+00   4.127630E+00   4.226526E+00   4.358980E+00   4.514607E+00   4.710437E+00   4.934250E+00   5.204506E+00   5.454893E+00   5.642981E+00   5.717026E+00   5.675055E+00   5.512584E+00   5.265688E+00   4.981348E+00   4.677480E+00   4.377740E+00   4.084547E+00   3.800891E+00   3.528833E+00   3.281040E+00   3.065296E+00   2.875125E+00   2.742872E+00   2.651814E+00   2.600037E+00   2.586541E+00   2.616661E+00   2.692707E+00   2.816095E+00   2.983939E+00   3.191783E+00   3.408485E+00   3.632113E+00   3.836250E+00   4.016431E+00   4.146179E+00   4.243723E+00   4.309430E+00   4.361368E+00   4.399844E+00   4.422757E+00   4.430183E+00   4.437057E+00   4.415270E+00   4.373800E+00   4.306153E+00   4.231452E+00   4.167167E+00   4.107432E+00   4.083067E+00   4.095413E+00   4.140350E+00   4.191122E+00   4.206092E+00   4.196057E+00   4.157894E+00   4.116363E+00   4.075859E+00   4.039134E+00   4.009554E+00
   3.896491E+00   3.808264E+00   3.706939E+00   3.617473E+00   3.544468E+00   3.483790E+00   3.426822E+00   3.386726E+00   3.348945E+00   3.305358E+00   3.238040E+00   3.162421E+00   3.060732E+00   2.958913E+00   2.861304E+00   2.788411E+00   2.738256E+00   2.722351E+00   2.739137E+00   2.785842E+00   2.847303E+00   2.944542E+00   3.081570E+00   3.264196E+00   3.476747E+00   3.718593E+00   3.984004E+00   4.265293E+00   4.517096E+00   4.716898E+00   4.850900E+00   4.916214E+00   4.878193E+00   4.797256E+00   4.627561E+00   4.407979E+00   4.159715E+00   3.904575E+00   3.671381E+00   3.492270E+00   3.347728E+00   3.228965E+00   3.124607E+00   3.028318E+00   2.943737E+00   2.873040E+00   2.827130E+00   2.791413E+00   2.786596E+00   2.800106E+00   2.824954E+00   2.847950E+00   2.864236E+00   2.863488E+00   2.830242E+00   2.784904E+00   2.741709E+00   2.726210E+00   2.748992E+00   2.821693E+00   2.941342E+00   3.095713E+00   3.256334E+00   3.401571E+00   3.504659E+00   3.551276E+00   3.541106E+00   3.483221E+00   3.396984E+00   3.283687E+00   3.157918E+00   3.024843E+00   2.914404E+00   2.824850E+00   2.781157E+00   2.771944E+00   2.795117E+00   2.835584E+00   2.895371E+00   2.947224E+00   2.991920E+00   3.007931E+00   2.995665E+00   2.954932E+00   2.893960E+00   2.836743E+00   2.786507E+00   2.764111E+00   2.783726E+00   2.851707E+00   2.984706E+00   3.145379E+00   3.331541E+00   3.492084E+00   3.601044E+00   3.640707E+00   3.616801E+00   3.548959E+00   3.454004E+00   3.323913E+00   3.169339E+00   2.995950E+00   2.832958E+00   2.694916E+00   2.574103E+00   2.487998E+00   2.434095E+00   2.393668E+00   2.381061E+00   2.367036E+00   2.370644E+00   2.385208E+00   2.415938E+00   2.466194E+00   2.530010E+00   2.616295E+00   2.714467E+00   2.835593E+00   2.981918E+00   3.154953E+00   3.350134E+00   3.571187E+00   3.813194E+00   4.058916E+00   4.280417E+00   4.463899E+00   4.608508E+00   4.703717E+00   4.741234E+00   4.728641E+00   4.661899E+00   4.551331E+00   4.399808E+00   4.235878E+00   4.082135E+00   3.944397E+00   3.856197E+00   3.807009E+00   3.815945E+00   3.887225E+00   4.004661E+00   4.149432E+00   4.328566E+00   4.552919E+00   4.810704E+00   5.113828E+00   5.421622E+00   5.736752E+00   5.978368E+00   6.084517E+00   6.043750E+00   5.855781E+00   5.551229E+00   5.188640E+00   4.810409E+00   4.452044E+00   4.092699E+00   3.748577E+00   3.424984E+00   3.138369E+00   2.889181E+00   2.700435E+00   2.550561E+00   2.445028E+00   2.391454E+00   2.380253E+00   2.412818E+00   2.497667E+00   2.634237E+00   2.831465E+00   3.050301E+00   3.292337E+00   3.532371E+00   3.766974E+00   3.958513E+00   4.113511E+00   4.209646E+00   4.281784E+00   4.319263E+00   4.339318E+00   4.337211E+00   4.334647E+00   4.302681E+00   4.280530E+00   4.231081E+00   4.189084E+00   4.154871E+00   4.129379E+00   4.138429E+00   4.184901E+00   4.258530E+00   4.340617E+00   4.393708E+00   4.415327E+00   4.385800E+00   4.323088E+00   4.236840E+00   4.155907E+00   4.091887E+00   4.036493E+00
   3.901856E+00   3.810020E+00   3.713331E+00   3.630585E+00   3.558962E+00   3.493470E+00   3.438604E+00   3.387162E+00   3.350625E+00   3.289291E+00   3.216905E+00   3.122060E+00   3.023890E+00   2.923069E+00   2.831681E+00   2.753501E+00   2.702083E+00   2.679123E+00   2.700192E+00   2.742981E+00   2.818082E+00   2.926976E+00   3.056702E+00   3.230720E+00   3.438814E+00   3.675915E+00   3.933042E+00   4.188085E+00   4.435740E+00   4.642269E+00   4.792624E+00   4.872704E+00   4.909039E+00   4.864882E+00   4.746929E+00   4.554289E+00   4.324114E+00   4.030420E+00   3.759261E+00   3.508871E+00   3.314230E+00   3.156805E+00   3.022880E+00   2.903969E+00   2.799933E+00   2.721669E+00   2.671479E+00   2.639369E+00   2.636986E+00   2.670628E+00   2.739013E+00   2.823235E+00   2.910343E+00   2.960851E+00   2.976414E+00   2.960549E+00   2.945720E+00   2.945072E+00   2.983125E+00   3.057761E+00   3.184562E+00   3.341501E+00   3.498797E+00   3.627180E+00   3.703028E+00   3.705239E+00   3.643256E+00   3.534823E+00   3.393969E+00   3.237517E+00   3.073877E+00   2.923829E+00   2.788047E+00   2.690886E+00   2.641305E+00   2.635794E+00   2.664817E+00   2.728878E+00   2.799571E+00   2.865773E+00   2.917741E+00   2.930921E+00   2.905766E+00   2.851314E+00   2.781410E+00   2.704656E+00   2.636384E+00   2.598992E+00   2.598956E+00   2.653629E+00   2.769596E+00   2.935644E+00   3.119206E+00   3.298762E+00   3.442332E+00   3.518466E+00   3.534476E+00   3.508887E+00   3.444973E+00   3.340971E+00   3.192882E+00   3.013157E+00   2.849506E+00   2.706739E+00   2.596246E+00   2.518840E+00   2.464376E+00   2.428383E+00   2.404704E+00   2.406923E+00   2.422276E+00   2.448635E+00   2.486769E+00   2.553366E+00   2.621906E+00   2.698283E+00   2.789849E+00   2.883269E+00   3.000593E+00   3.141160E+00   3.319935E+00   3.524071E+00   3.753569E+00   3.991619E+00   4.187824E+00   4.355435E+00   4.461177E+00   4.499485E+00   4.505359E+00   4.484747E+00   4.418763E+00   4.309505E+00   4.154410E+00   4.001477E+00   3.840245E+00   3.701605E+00   3.600804E+00   3.565457E+00   3.584551E+00   3.674136E+00   3.811041E+00   4.003562E+00   4.232359E+00   4.504980E+00   4.816328E+00   5.151261E+00   5.489069E+00   5.836693E+00   6.112908E+00   6.268508E+00   6.251097E+00   6.081846E+00   5.759170E+00   5.355493E+00   4.928003E+00   4.504788E+00   4.099070E+00   3.720358E+00   3.368564E+00   3.066251E+00   2.810993E+00   2.600950E+00   2.445383E+00   2.332258E+00   2.270621E+00   2.254895E+00   2.288325E+00   2.376371E+00   2.523576E+00   2.715705E+00   2.945248E+00   3.191296E+00   3.443748E+00   3.689459E+00   3.913784E+00   4.080274E+00   4.192980E+00   4.246727E+00   4.279373E+00   4.268236E+00   4.247623E+00   4.206323E+00   4.172285E+00   4.134831E+00   4.107663E+00   4.080953E+00   4.088227E+00   4.122506E+00   4.193367E+00   4.300824E+00   4.423524E+00   4.541013E+00   4.622837E+00   4.633677E+00   4.597709E+00   4.522363E+00   4.414361E+00   4.300048E+00   4.189032E+00   4.089269E+00
   3.927779E+00   3.860636E+00   3.788657E+00   3.723255E+00   3.643800E+00   3.575174E+00   3.507294E+00   3.460277E+00   3.412736E+00   3.347822E+00   3.263120E+00   3.164377E+00   3.053116E+00   2.956425E+00   2.865086E+00   2.791613E+00   2.733573E+00   2.716515E+00   2.735014E+00   2.798298E+00   2.882051E+00   2.998084E+00   3.128347E+00   3.293430E+00   3.480805E+00   3.681627E+00   3.901870E+00   4.138495E+00   4.358798E+00   4.559598E+00   4.716506E+00   4.837507E+00   4.929239E+00   4.954887E+00   4.886945E+00   4.749554E+00   4.529400E+00   4.227334E+00   3.908587E+00   3.604542E+00   3.351342E+00   3.144949E+00   2.971175E+00   2.837432E+00   2.728666E+00   2.643163E+00   2.594198E+00   2.572974E+00   2.600180E+00   2.667433E+00   2.776564E+00   2.913825E+00   3.051975E+00   3.166397E+00   3.228409E+00   3.264224E+00   3.281543E+00   3.301461E+00   3.351261E+00   3.445932E+00   3.576813E+00   3.732548E+00   3.894564E+00   4.002817E+00   4.042768E+00   3.995533E+00   3.872828E+00   3.711041E+00   3.517873E+00   3.313235E+00   3.125193E+00   2.946184E+00   2.803054E+00   2.694142E+00   2.638557E+00   2.633760E+00   2.659088E+00   2.716255E+00   2.789399E+00   2.847024E+00   2.889193E+00   2.889921E+00   2.852360E+00   2.789471E+00   2.706260E+00   2.613406E+00   2.526303E+00   2.465098E+00   2.452110E+00   2.497694E+00   2.601618E+00   2.760776E+00   2.955879E+00   3.156390E+00   3.335350E+00   3.461016E+00   3.530905E+00   3.550894E+00   3.522642E+00   3.437080E+00   3.299815E+00   3.144114E+00   2.984594E+00   2.847798E+00   2.743796E+00   2.675417E+00   2.636086E+00   2.606121E+00   2.594789E+00   2.592273E+00   2.609394E+00   2.639467E+00   2.691429E+00   2.750888E+00   2.813112E+00   2.870790E+00   2.921466E+00   2.981105E+00   3.060681E+00   3.169505E+00   3.313530E+00   3.483021E+00   3.679428E+00   3.871904E+00   4.036363E+00   4.142922E+00   4.185272E+00   4.176081E+00   4.163226E+00   4.129680E+00   4.091786E+00   4.017565E+00   3.917158E+00   3.791036E+00   3.647853E+00   3.508815E+00   3.404488E+00   3.357776E+00   3.388391E+00   3.479268E+00   3.631730E+00   3.853523E+00   4.107230E+00   4.400257E+00   4.726511E+00   5.081050E+00   5.439699E+00   5.796359E+00   6.091882E+00   6.274662E+00   6.310355E+00   6.158228E+00   5.832487E+00   5.430094E+00   4.998826E+00   4.558981E+00   4.133409E+00   3.732015E+00   3.385449E+00   3.080755E+00   2.821235E+00   2.606403E+00   2.437114E+00   2.311256E+00   2.234213E+00   2.206430E+00   2.235767E+00   2.315176E+00   2.456190E+00   2.644412E+00   2.873822E+00   3.128447E+00   3.389650E+00   3.644873E+00   3.861548E+00   4.030257E+00   4.142908E+00   4.209206E+00   4.220136E+00   4.215834E+00   4.167714E+00   4.130903E+00   4.083524E+00   4.053115E+00   4.027069E+00   4.033995E+00   4.065458E+00   4.130141E+00   4.237485E+00   4.388333E+00   4.552867E+00   4.687539E+00   4.764193E+00   4.776150E+00   4.729129E+00   4.654471E+00   4.558918E+00   4.432373E+00   4.291399E+00   4.145027E+00
   3.979215E+00   3.956052E+00   3.916059E+00   3.846133E+00   3.787254E+00   3.702306E+00   3.640450E+00   3.585302E+00   3.538622E+00   3.469888E+00   3.374646E+00   3.260722E+00   3.137028E+00   3.032570E+00   2.942966E+00   2.871618E+00   2.819652E+00   2.790921E+00   2.820245E+00   2.883767E+00   2.984767E+00   3.110824E+00   3.237500E+00   3.392029E+00   3.557373E+00   3.740605E+00   3.941895E+00   4.131143E+00   4.331388E+00   4.529255E+00   4.722446E+00   4.876470E+00   4.994178E+00   5.068359E+00   5.074906E+00   4.980691E+00   4.779402E+00   4.475993E+00   4.124340E+00   3.774052E+00   3.476669E+00   3.219757E+00   3.016712E+00   2.855606E+00   2.732055E+00   2.651182E+00   2.602694E+00   2.606887E+00   2.659378E+00   2.754162E+00   2.902015E+00   3.083728E+00   3.264815E+00   3.425477E+00   3.535770E+00   3.600792E+00   3.640851E+00   3.670824E+00   3.742112E+00   3.855241E+00   4.003439E+00   4.173961E+00   4.336129E+00   4.434779E+00   4.437844E+00   4.351429E+00   4.188816E+00   3.979910E+00   3.749542E+00   3.520309E+00   3.295609E+00   3.104438E+00   2.943729E+00   2.832579E+00   2.759745E+00   2.730147E+00   2.735096E+00   2.771570E+00   2.823532E+00   2.866369E+00   2.879869E+00   2.862175E+00   2.807862E+00   2.741174E+00   2.650591E+00   2.550133E+00   2.459428E+00   2.393390E+00   2.381687E+00   2.431963E+00   2.542350E+00   2.698791E+00   2.900387E+00   3.110288E+00   3.316273E+00   3.494290E+00   3.620946E+00   3.674297E+00   3.670807E+00   3.599749E+00   3.484059E+00   3.344069E+00   3.200329E+00   3.072011E+00   2.981993E+00   2.926019E+00   2.895764E+00   2.879402E+00   2.873938E+00   2.873202E+00   2.885428E+00   2.914440E+00   2.965424E+00   3.022632E+00   3.066456E+00   3.108563E+00   3.122311E+00   3.139143E+00   3.170664E+00   3.221156E+00   3.308532E+00   3.420922E+00   3.553293E+00   3.682979E+00   3.774340E+00   3.814051E+00   3.802370E+00   3.771239E+00   3.743870E+00   3.736565E+00   3.735337E+00   3.735882E+00   3.698935E+00   3.619895E+00   3.520894E+00   3.397826E+00   3.291338E+00   3.229141E+00   3.249144E+00   3.342912E+00   3.512114E+00   3.753010E+00   4.029712E+00   4.332008E+00   4.644987E+00   4.977865E+00   5.325063E+00   5.669788E+00   5.977856E+00   6.189908E+00   6.239803E+00   6.110528E+00   5.834967E+00   5.472969E+00   5.047610E+00   4.617649E+00   4.185483E+00   3.798200E+00   3.451356E+00   3.153261E+00   2.899461E+00   2.673018E+00   2.492250E+00   2.357121E+00   2.272595E+00   2.236481E+00   2.258179E+00   2.327393E+00   2.455791E+00   2.632404E+00   2.854477E+00   3.111591E+00   3.386461E+00   3.643553E+00   3.849129E+00   4.000164E+00   4.092315E+00   4.131639E+00   4.142512E+00   4.115999E+00   4.074322E+00   4.032190E+00   3.995068E+00   3.959958E+00   3.949557E+00   3.955076E+00   4.000596E+00   4.076064E+00   4.203000E+00   4.372278E+00   4.537192E+00   4.675642E+00   4.759130E+00   4.768179E+00   4.727993E+00   4.655791E+00   4.566732E+00   4.446435E+00   4.311211E+00   4.158977E+00
   4.043867E+00   4.084101E+00   4.071353E+00   4.037208E+00   3.960848E+00   3.885038E+00   3.813579E+00   3.759451E+00   3.692976E+00   3.604052E+00   3.480003E+00   3.350092E+00   3.221257E+00   3.114027E+00   3.027580E+00   2.968425E+00   2.913593E+00   2.900945E+00   2.924427E+00   2.989227E+00   3.088418E+00   3.214757E+00   3.342471E+00   3.479142E+00   3.627797E+00   3.797992E+00   3.966352E+00   4.148335E+00   4.342435E+00   4.552383E+00   4.756899E+00   4.955244E+00   5.105726E+00   5.218130E+00   5.244431E+00   5.180751E+00   5.009756E+00   4.737011E+00   4.381275E+00   4.004503E+00   3.652428E+00   3.364423E+00   3.127385E+00   2.945760E+00   2.820305E+00   2.736519E+00   2.707743E+00   2.717488E+00   2.787945E+00   2.909664E+00   3.081063E+00   3.272949E+00   3.458725E+00   3.628941E+00   3.748531E+00   3.826721E+00   3.874908E+00   3.941524E+00   4.036558E+00   4.176066E+00   4.367079E+00   4.566407E+00   4.749378E+00   4.856351E+00   4.847840E+00   4.724233E+00   4.530420E+00   4.301511E+00   4.057051E+00   3.805705E+00   3.577891E+00   3.378605E+00   3.201657E+00   3.065451E+00   2.967743E+00   2.905405E+00   2.885659E+00   2.880147E+00   2.895695E+00   2.904298E+00   2.899350E+00   2.858484E+00   2.797929E+00   2.723488E+00   2.642293E+00   2.554538E+00   2.475172E+00   2.430122E+00   2.430915E+00   2.496529E+00   2.613223E+00   2.781704E+00   2.975688E+00   3.193243E+00   3.412187E+00   3.608152E+00   3.763561E+00   3.838213E+00   3.843148E+00   3.784956E+00   3.672897E+00   3.547037E+00   3.416075E+00   3.298823E+00   3.212527E+00   3.164647E+00   3.148872E+00   3.143671E+00   3.147962E+00   3.159890E+00   3.178898E+00   3.207583E+00   3.260268E+00   3.311048E+00   3.340561E+00   3.345973E+00   3.324662E+00   3.287969E+00   3.258393E+00   3.245036E+00   3.259768E+00   3.297934E+00   3.354271E+00   3.409914E+00   3.442082E+00   3.443983E+00   3.414894E+00   3.381946E+00   3.374753E+00   3.389929E+00   3.444577E+00   3.502478E+00   3.535270E+00   3.518765E+00   3.461614E+00   3.369211E+00   3.283999E+00   3.227404E+00   3.242461E+00   3.321902E+00   3.490355E+00   3.740984E+00   4.033638E+00   4.338088E+00   4.635831E+00   4.931263E+00   5.239514E+00   5.556878E+00   5.846828E+00   6.059902E+00   6.143709E+00   6.063549E+00   5.840795E+00   5.502416E+00   5.103152E+00   4.675846E+00   4.269987E+00   3.886233E+00   3.560204E+00   3.278067E+00   3.028327E+00   2.793658E+00   2.600933E+00   2.452437E+00   2.352170E+00   2.309222E+00   2.314269E+00   2.382767E+00   2.500028E+00   2.669391E+00   2.872402E+00   3.123242E+00   3.385629E+00   3.627908E+00   3.815308E+00   3.944208E+00   4.012004E+00   4.035670E+00   4.031704E+00   3.990023E+00   3.960622E+00   3.940793E+00   3.914695E+00   3.893076E+00   3.875557E+00   3.878245E+00   3.913871E+00   3.978908E+00   4.088409E+00   4.229289E+00   4.381838E+00   4.500959E+00   4.581531E+00   4.594101E+00   4.575734E+00   4.527447E+00   4.442627E+00   4.360678E+00   4.255007E+00   4.139197E+00
   4.118083E+00   4.210625E+00   4.262483E+00   4.249784E+00   4.208255E+00   4.124897E+00   4.064931E+00   3.997138E+00   3.908994E+00   3.779357E+00   3.618501E+00   3.458731E+00   3.315116E+00   3.196484E+00   3.115508E+00   3.068022E+00   3.036055E+00   3.024374E+00   3.037567E+00   3.091208E+00   3.170774E+00   3.276566E+00   3.403980E+00   3.532439E+00   3.672899E+00   3.817058E+00   3.980669E+00   4.160218E+00   4.384098E+00   4.597009E+00   4.814427E+00   5.006520E+00   5.182124E+00   5.289955E+00   5.336551E+00   5.285853E+00   5.156836E+00   4.925742E+00   4.612306E+00   4.240105E+00   3.878318E+00   3.555077E+00   3.295936E+00   3.101977E+00   2.960626E+00   2.878047E+00   2.847735E+00   2.877479E+00   2.958499E+00   3.079063E+00   3.238980E+00   3.414450E+00   3.596127E+00   3.737032E+00   3.843314E+00   3.910491E+00   3.973852E+00   4.058507E+00   4.187948E+00   4.376737E+00   4.612138E+00   4.859397E+00   5.051641E+00   5.164950E+00   5.162154E+00   5.044312E+00   4.842991E+00   4.610382E+00   4.366031E+00   4.127666E+00   3.916778E+00   3.720068E+00   3.534782E+00   3.381803E+00   3.238060E+00   3.137738E+00   3.067643E+00   3.019604E+00   2.986021E+00   2.955128E+00   2.920308E+00   2.866725E+00   2.804097E+00   2.741679E+00   2.668940E+00   2.616274E+00   2.575627E+00   2.565513E+00   2.600918E+00   2.681524E+00   2.828638E+00   3.010511E+00   3.222953E+00   3.450024E+00   3.653651E+00   3.813161E+00   3.943369E+00   4.020783E+00   4.009427E+00   3.952665E+00   3.841930E+00   3.726616E+00   3.610315E+00   3.506516E+00   3.425888E+00   3.373388E+00   3.342815E+00   3.343915E+00   3.354376E+00   3.379946E+00   3.413458E+00   3.449567E+00   3.492436E+00   3.513246E+00   3.511356E+00   3.486274E+00   3.433022E+00   3.358600E+00   3.270494E+00   3.190079E+00   3.132830E+00   3.100387E+00   3.091357E+00   3.086264E+00   3.077336E+00   3.064306E+00   3.046069E+00   3.046360E+00   3.069635E+00   3.128805E+00   3.219527E+00   3.329458E+00   3.412926E+00   3.460345E+00   3.453581E+00   3.415329E+00   3.354092E+00   3.319142E+00   3.333253E+00   3.424423E+00   3.582774E+00   3.817432E+00   4.090340E+00   4.375532E+00   4.642116E+00   4.914570E+00   5.188747E+00   5.481617E+00   5.739258E+00   5.937123E+00   6.021385E+00   5.969900E+00   5.784005E+00   5.507385E+00   5.159021E+00   4.774485E+00   4.399118E+00   4.037405E+00   3.707990E+00   3.425341E+00   3.169319E+00   2.936299E+00   2.729613E+00   2.576806E+00   2.472895E+00   2.423149E+00   2.430974E+00   2.485701E+00   2.602208E+00   2.752442E+00   2.949338E+00   3.173431E+00   3.409620E+00   3.627382E+00   3.804501E+00   3.901493E+00   3.955617E+00   3.968839E+00   3.953452E+00   3.917799E+00   3.893074E+00   3.872765E+00   3.862276E+00   3.836238E+00   3.818063E+00   3.802546E+00   3.815957E+00   3.857497E+00   3.934107E+00   4.037919E+00   4.145330E+00   4.243996E+00   4.295422E+00   4.320701E+00   4.320724E+00   4.298131E+00   4.258227E+00   4.217117E+00   4.165347E+00   4.084782E+00