# LPF package for  MODFLOW-2005, generated by Flopy.
         0    -1E+30         0  
         0
         0
   1.000000E+00
         0
         0
INTERNAL               1 (200E15.6) -1 #hk layer 1                    
   3.962796E+00   3.935273E+00   3.904626E+00   3.862619E+00   3.833889E+00   3.813479E+00   3.802141E+00   3.789410E+00   3.787804E+00   3.761541E+00   3.732103E+00   3.689065E+00   3.641820E+00   3.585398E+00   3.527790E+00   3.488880E+00   3.471369E+00   3.475689E+00   3.487954E+00   3.515063E+00   3.555582E+00   3.610314E+00   3.676351E+00   3.769871E+00   3.856574E+00   3.942774E+00   4.024160E+00   4.102752E+00   4.173506E+00   4.229002E+00   4.263575E+00   4.278226E+00   4.262508E+00   4.208754E+00   4.144100E+00   4.060999E+00   3.983598E+00   3.902423E+00   3.837242E+00   3.780324E+00   3.734269E+00   3.704924E+00   3.677559E+00   3.641371E+00   3.612064E+00   3.596150E+00   3.597812E+00   3.596405E+00   3.597047E+00   3.587695E+00   3.565924E+00   3.538529E+00   3.502676E+00   3.460998E+00   3.425265E+00   3.380521E+00   3.348210E+00   3.330781E+00   3.342751E+00   3.384941E+00   3.438057E+00   3.508830E+00   3.589179E+00   3.667741E+00   3.725114E+00   3.774397E+00   3.803994E+00   3.824245E+00   3.826204E+00   3.806267E+00   3.768836E+00   3.724440E+00   3.684048E+00   3.658965E+00   3.654833E+00   3.647236E+00   3.655468E+00   3.651742E+00   3.644519E+00   3.635070E+00   3.635641E+00   3.623591E+00   3.611220E+00   3.599243E+00   3.582825E+00   3.571962E+00   3.569732E+00   3.582051E+00   3.598021E+00   3.648830E+00   3.714721E+00   3.790751E+00   3.863147E+00   3.918211E+00   3.937962E+00   3.934206E+00   3.911730E+00   3.868116E+00   3.820157E+00   3.755210E+00   3.688784E+00   3.614348E+00   3.538808E+00   3.483510E+00   3.436778E+00   3.398582E+00   3.375404E+00   3.354300E+00   3.352349E+00   3.340819E+00   3.328537E+00   3.308828E+00   3.299222E+00   3.304884E+00   3.313713E+00   3.343861E+00   3.403269E+00   3.481785E+00   3.577313E+00   3.681807E+00   3.773064E+00   3.873335E+00   3.962991E+00   4.047335E+00   4.127073E+00   4.192604E+00   4.268234E+00   4.325223E+00   4.356867E+00   4.373168E+00   4.360362E+00   4.335725E+00   4.308518E+00   4.267729E+00   4.213100E+00   4.169170E+00   4.111151E+00   4.072411E+00   4.050503E+00   4.051617E+00   4.074296E+00   4.106838E+00   4.158799E+00   4.213293E+00   4.279480E+00   4.349060E+00   4.431344E+00   4.525146E+00   4.590693E+00   4.616940E+00   4.595871E+00   4.545393E+00   4.457949E+00   4.371028E+00   4.269356E+00   4.164114E+00   4.064142E+00   3.962226E+00   3.866616E+00   3.760814E+00   3.673607E+00   3.573087E+00   3.493819E+00   3.439984E+00   3.401836E+00   3.385055E+00   3.389100E+00   3.415179E+00   3.461385E+00   3.544917E+00   3.647798E+00   3.756924E+00   3.870710E+00   3.969744E+00   4.043636E+00   4.094907E+00   4.129500E+00   4.160898E+00   4.187382E+00   4.202403E+00   4.222188E+00   4.238246E+00   4.251599E+00   4.250257E+00   4.238732E+00   4.202000E+00   4.152895E+00   4.089744E+00   4.031889E+00   3.993480E+00   3.975444E+00   3.977313E+00   3.985267E+00   4.000327E+00   4.005191E+00   4.010262E+00   4.009954E+00   3.991197E+00   3.983187E+00   3.979286E+00
   3.931099E+00   3.887743E+00   3.829808E+00   3.762629E+00   3.694586E+00   3.655583E+00   3.623613E+00   3.599867E+00   3.585620E+00   3.569217E+00   3.518339E+00   3.459088E+00   3.366409E+00   3.277773E+00   3.189183E+00   3.124490E+00   3.088273E+00   3.089626E+00   3.109058E+00   3.146129E+00   3.207125E+00   3.295005E+00   3.409073E+00   3.546378E+00   3.701524E+00   3.869651E+00   4.044472E+00   4.213190E+00   4.364164E+00   4.477077E+00   4.542969E+00   4.578686E+00   4.539555E+00   4.450043E+00   4.313868E+00   4.166934E+00   4.016866E+00   3.866380E+00   3.721136E+00   3.617098E+00   3.531919E+00   3.477398E+00   3.426437E+00   3.377970E+00   3.326756E+00   3.299264E+00   3.291311E+00   3.285480E+00   3.282849E+00   3.269508E+00   3.242012E+00   3.198189E+00   3.152033E+00   3.091719E+00   3.019329E+00   2.953155E+00   2.904891E+00   2.881543E+00   2.897082E+00   2.956106E+00   3.048581E+00   3.177772E+00   3.316816E+00   3.439774E+00   3.541308E+00   3.620651E+00   3.660237E+00   3.671331E+00   3.654960E+00   3.608189E+00   3.537197E+00   3.463402E+00   3.395138E+00   3.346845E+00   3.318418E+00   3.305839E+00   3.306810E+00   3.317248E+00   3.330678E+00   3.344528E+00   3.345985E+00   3.339422E+00   3.319990E+00   3.291213E+00   3.255175E+00   3.223722E+00   3.213881E+00   3.222861E+00   3.256565E+00   3.326395E+00   3.449254E+00   3.571330E+00   3.707842E+00   3.807970E+00   3.860735E+00   3.865804E+00   3.817430E+00   3.748142E+00   3.658905E+00   3.553161E+00   3.436161E+00   3.309336E+00   3.182816E+00   3.082057E+00   3.002746E+00   2.939546E+00   2.899002E+00   2.875553E+00   2.857814E+00   2.842572E+00   2.823047E+00   2.810410E+00   2.814380E+00   2.823851E+00   2.855579E+00   2.913059E+00   2.996779E+00   3.108204E+00   3.251579E+00   3.408088E+00   3.570883E+00   3.748478E+00   3.919951E+00   4.086958E+00   4.236386E+00   4.381914E+00   4.511861E+00   4.608353E+00   4.648995E+00   4.659501E+00   4.639560E+00   4.594069E+00   4.519525E+00   4.416024E+00   4.309882E+00   4.212784E+00   4.140335E+00   4.086899E+00   4.073934E+00   4.088741E+00   4.139067E+00   4.222869E+00   4.297488E+00   4.407056E+00   4.526009E+00   4.681164E+00   4.854842E+00   5.038171E+00   5.182909E+00   5.230704E+00   5.195717E+00   5.072923E+00   4.905454E+00   4.710661E+00   4.497604E+00   4.284855E+00   4.077394E+00   3.883703E+00   3.689601E+00   3.513219E+00   3.339149E+00   3.194931E+00   3.067024E+00   2.986115E+00   2.935658E+00   2.910820E+00   2.919070E+00   2.971636E+00   3.068341E+00   3.208055E+00   3.374100E+00   3.558379E+00   3.746755E+00   3.909940E+00   4.045920E+00   4.142559E+00   4.213538E+00   4.270896E+00   4.313200E+00   4.347987E+00   4.379182E+00   4.414473E+00   4.424719E+00   4.419858E+00   4.381658E+00   4.328306E+00   4.247390E+00   4.152686E+00   4.068107E+00   4.004686E+00   4.003837E+00   4.018779E+00   4.044848E+00   4.059623E+00   4.058068E+00   4.054870E+00   4.036933E+00   4.011804E+00   3.986735E+00   3.982326E+00
   3.911449E+00   3.831514E+00   3.749124E+00   3.665341E+00   3.598440E+00   3.527546E+00   3.482135E+00   3.448268E+00   3.426477E+00   3.389964E+00   3.342418E+00   3.261706E+00   3.174749E+00   3.070688E+00   2.974752E+00   2.897423E+00   2.853438E+00   2.846137E+00   2.866386E+00   2.912673E+00   2.976665E+00   3.079364E+00   3.215964E+00   3.387761E+00   3.577219E+00   3.793578E+00   4.038219E+00   4.276866E+00   4.495727E+00   4.657753E+00   4.768564E+00   4.801634E+00   4.762948E+00   4.652749E+00   4.500587E+00   4.292947E+00   4.082282E+00   3.863100E+00   3.679872E+00   3.528443E+00   3.415766E+00   3.325017E+00   3.258806E+00   3.194175E+00   3.126609E+00   3.063393E+00   3.038812E+00   3.013812E+00   3.011907E+00   3.010916E+00   3.004410E+00   2.979258E+00   2.953187E+00   2.897901E+00   2.834840E+00   2.772801E+00   2.718031E+00   2.692093E+00   2.709980E+00   2.779417E+00   2.893952E+00   3.038863E+00   3.197226E+00   3.348098E+00   3.465569E+00   3.537034E+00   3.565969E+00   3.555280E+00   3.505883E+00   3.430144E+00   3.324174E+00   3.223025E+00   3.130071E+00   3.063268E+00   3.021250E+00   3.000911E+00   3.008747E+00   3.033474E+00   3.074527E+00   3.110960E+00   3.130837E+00   3.131158E+00   3.116269E+00   3.073742E+00   3.033872E+00   2.992836E+00   2.964494E+00   2.957284E+00   2.984112E+00   3.066369E+00   3.195988E+00   3.361851E+00   3.523588E+00   3.667654E+00   3.738639E+00   3.748351E+00   3.707698E+00   3.629714E+00   3.533754E+00   3.403440E+00   3.255857E+00   3.101897E+00   2.953136E+00   2.817328E+00   2.714453E+00   2.633847E+00   2.576714E+00   2.543647E+00   2.525845E+00   2.512217E+00   2.502270E+00   2.501032E+00   2.520326E+00   2.552214E+00   2.595058E+00   2.671650E+00   2.768817E+00   2.892193E+00   3.055748E+00   3.236703E+00   3.429617E+00   3.652670E+00   3.877911E+00   4.097768E+00   4.299469E+00   4.472445E+00   4.633444E+00   4.738935E+00   4.800968E+00   4.800032E+00   4.755432E+00   4.667248E+00   4.542113E+00   4.403584E+00   4.262884E+00   4.145362E+00   4.047350E+00   4.002380E+00   3.997952E+00   4.043083E+00   4.128215E+00   4.227097E+00   4.359529E+00   4.515130E+00   4.710943E+00   4.934745E+00   5.205007E+00   5.455401E+00   5.643494E+00   5.717523E+00   5.675514E+00   5.512980E+00   5.266009E+00   4.981606E+00   4.677696E+00   4.377938E+00   4.084743E+00   3.801094E+00   3.529039E+00   3.281235E+00   3.065473E+00   2.875271E+00   2.742987E+00   2.651892E+00   2.600081E+00   2.586553E+00   2.616638E+00   2.692651E+00   2.816004E+00   2.983814E+00   3.191632E+00   3.408326E+00   3.631967E+00   3.836134E+00   4.016369E+00   4.146179E+00   4.243778E+00   4.309526E+00   4.361483E+00   4.399952E+00   4.422844E+00   4.430226E+00   4.437042E+00   4.415188E+00   4.373649E+00   4.305948E+00   4.231221E+00   4.166938E+00   4.107230E+00   4.082923E+00   4.095345E+00   4.140378E+00   4.191250E+00   4.206313E+00   4.196341E+00   4.158200E+00   4.116652E+00   4.076101E+00   4.039310E+00   4.009646E+00
   3.896385E+00   3.808059E+00   3.706647E+00   3.617109E+00   3.544055E+00   3.483360E+00   3.426400E+00   3.386327E+00   3.348577E+00   3.305036E+00   3.237768E+00   3.162208E+00   3.060578E+00   2.958814E+00   2.861245E+00   2.788378E+00   2.738233E+00   2.722331E+00   2.739108E+00   2.785797E+00   2.847233E+00   2.944448E+00   3.081455E+00   3.264060E+00   3.476604E+00   3.718458E+00   3.983898E+00   4.265230E+00   4.517075E+00   4.716904E+00   4.850917E+00   4.916214E+00   4.878161E+00   4.797180E+00   4.627449E+00   4.407831E+00   4.159536E+00   3.904360E+00   3.671123E+00   3.491963E+00   3.347379E+00   3.228579E+00   3.124194E+00   3.027893E+00   2.943316E+00   2.872642E+00   2.826768E+00   2.791097E+00   2.786332E+00   2.799898E+00   2.824801E+00   2.847845E+00   2.864170E+00   2.863456E+00   2.830240E+00   2.784930E+00   2.741757E+00   2.726273E+00   2.749063E+00   2.821766E+00   2.941419E+00   3.095797E+00   3.256424E+00   3.401666E+00   3.504755E+00   3.551380E+00   3.541221E+00   3.483363E+00   3.397161E+00   3.283903E+00   3.158169E+00   3.025117E+00   2.914693E+00   2.825140E+00   2.781441E+00   2.772207E+00   2.795347E+00   2.835762E+00   2.895482E+00   2.947253E+00   2.991858E+00   3.007786E+00   2.995454E+00   2.954673E+00   2.893671E+00   2.836435E+00   2.786190E+00   2.763789E+00   2.783404E+00   2.851386E+00   2.984381E+00   3.145039E+00   3.331179E+00   3.491698E+00   3.600643E+00   3.640301E+00   3.616405E+00   3.548587E+00   3.453668E+00   3.323626E+00   3.169107E+00   2.995774E+00   2.832830E+00   2.694825E+00   2.574033E+00   2.487939E+00   2.434032E+00   2.393593E+00   2.380964E+00   2.366911E+00   2.370489E+00   2.385018E+00   2.415711E+00   2.465929E+00   2.529712E+00   2.615978E+00   2.714152E+00   2.835301E+00   2.981668E+00   3.154762E+00   3.350020E+00   3.571162E+00   3.813273E+00   4.059112E+00   4.280750E+00   4.464372E+00   4.609121E+00   4.704451E+00   4.742064E+00   4.729537E+00   4.662833E+00   4.552275E+00   4.400736E+00   4.236767E+00   4.082973E+00   3.945184E+00   3.856936E+00   3.807711E+00   3.816617E+00   3.887877E+00   4.005297E+00   4.150056E+00   4.329175E+00   4.553514E+00   4.811284E+00   5.114405E+00   5.422197E+00   5.737345E+00   5.978979E+00   6.085122E+00   6.044318E+00   5.856279E+00   5.551636E+00   5.188961E+00   4.810671E+00   4.452273E+00   4.092915E+00   3.748786E+00   3.425184E+00   3.138552E+00   2.889337E+00   2.700560E+00   2.550650E+00   2.445079E+00   2.391469E+00   2.380233E+00   2.412763E+00   2.497578E+00   2.634114E+00   2.831307E+00   3.050119E+00   3.292147E+00   3.532194E+00   3.766836E+00   3.958431E+00   4.113497E+00   4.209697E+00   4.281881E+00   4.319381E+00   4.339430E+00   4.337286E+00   4.334663E+00   4.302618E+00   4.280391E+00   4.230870E+00   4.188817E+00   4.154572E+00   4.129076E+00   4.138162E+00   4.184700E+00   4.258426E+00   4.340630E+00   4.393846E+00   4.415576E+00   4.386127E+00   4.323443E+00   4.237177E+00   4.156195E+00   4.092098E+00   4.036605E+00
   3.901759E+00   3.809836E+00   3.713069E+00   3.630256E+00   3.558587E+00   3.493072E+00   3.438213E+00   3.386796E+00   3.350299E+00   3.289017E+00   3.216689E+00   3.121907E+00   3.023803E+00   2.923031E+00   2.831677E+00   2.753511E+00   2.702094E+00   2.679121E+00   2.700167E+00   2.742921E+00   2.817983E+00   2.926838E+00   3.056531E+00   3.230525E+00   3.438612E+00   3.675721E+00   3.932876E+00   4.187958E+00   4.435649E+00   4.642209E+00   4.792576E+00   4.872657E+00   4.908970E+00   4.864787E+00   4.746803E+00   4.554131E+00   4.323916E+00   4.030174E+00   3.758958E+00   3.508510E+00   3.313811E+00   3.156331E+00   3.022362E+00   2.903426E+00   2.799386E+00   2.721133E+00   2.670968E+00   2.638897E+00   2.636564E+00   2.670265E+00   2.738709E+00   2.822990E+00   2.910155E+00   2.960718E+00   2.976335E+00   2.960514E+00   2.945724E+00   2.945101E+00   2.983170E+00   3.057811E+00   3.184608E+00   3.341539E+00   3.498823E+00   3.627187E+00   3.703020E+00   3.705222E+00   3.643249E+00   3.534840E+00   3.394027E+00   3.237623E+00   3.074034E+00   2.924028E+00   2.788273E+00   2.691130E+00   2.641556E+00   2.636043E+00   2.665047E+00   2.729073E+00   2.799707E+00   2.865833E+00   2.917715E+00   2.930811E+00   2.905587E+00   2.851084E+00   2.781145E+00   2.704369E+00   2.636087E+00   2.598687E+00   2.598649E+00   2.653322E+00   2.769282E+00   2.935314E+00   3.118856E+00   3.298393E+00   3.441951E+00   3.518085E+00   3.534106E+00   3.508538E+00   3.444655E+00   3.340695E+00   3.192656E+00   3.012980E+00   2.849373E+00   2.706638E+00   2.596161E+00   2.518761E+00   2.464290E+00   2.428279E+00   2.404575E+00   2.406766E+00   2.422091E+00   2.448417E+00   2.486517E+00   2.553078E+00   2.621591E+00   2.697954E+00   2.789525E+00   2.882974E+00   3.000345E+00   3.140980E+00   3.319838E+00   3.524074E+00   3.753684E+00   3.991864E+00   4.188209E+00   4.355966E+00   4.461838E+00   4.500259E+00   4.506221E+00   4.485674E+00   4.419729E+00   4.310488E+00   4.155377E+00   4.002407E+00   3.841118E+00   3.702420E+00   3.601562E+00   3.566175E+00   3.585234E+00   3.674793E+00   3.811678E+00   4.004190E+00   4.232975E+00   4.505583E+00   4.816924E+00   5.151853E+00   5.489660E+00   5.837301E+00   6.113535E+00   6.269138E+00   6.251707E+00   6.082400E+00   5.759633E+00   5.355865E+00   4.928297E+00   4.505030E+00   4.099276E+00   3.720540E+00   3.368724E+00   3.066390E+00   2.811107E+00   2.601032E+00   2.445429E+00   2.332263E+00   2.270587E+00   2.254826E+00   2.288221E+00   2.376235E+00   2.523409E+00   2.715511E+00   2.945034E+00   3.191082E+00   3.443554E+00   3.689310E+00   3.913703E+00   4.080269E+00   4.193045E+00   4.246839E+00   4.279501E+00   4.268347E+00   4.247683E+00   4.206304E+00   4.172177E+00   4.134633E+00   4.107388E+00   4.080614E+00   4.087851E+00   4.122127E+00   4.193025E+00   4.300560E+00   4.423372E+00   4.540998E+00   4.622965E+00   4.633931E+00   4.598050E+00   4.522743E+00   4.414727E+00   4.300360E+00   4.189260E+00   4.089386E+00
   3.927701E+00   3.860486E+00   3.788442E+00   3.722987E+00   3.643493E+00   3.574852E+00   3.506982E+00   3.459995E+00   3.412498E+00   3.347639E+00   3.262993E+00   3.164310E+00   3.053104E+00   2.956455E+00   2.865138E+00   2.791667E+00   2.733612E+00   2.716522E+00   2.734974E+00   2.798200E+00   2.881893E+00   2.997869E+00   3.128088E+00   3.293142E+00   3.480506E+00   3.681338E+00   3.901609E+00   4.138270E+00   4.358614E+00   4.559449E+00   4.716385E+00   4.837398E+00   4.929128E+00   4.954764E+00   4.886799E+00   4.749375E+00   4.529178E+00   4.227053E+00   3.908239E+00   3.604123E+00   3.350846E+00   3.144381E+00   2.970550E+00   2.836769E+00   2.727986E+00   2.642485E+00   2.593535E+00   2.572343E+00   2.599589E+00   2.666891E+00   2.776082E+00   2.913410E+00   3.051631E+00   3.166125E+00   3.228208E+00   3.264085E+00   3.281456E+00   3.301412E+00   3.351234E+00   3.445905E+00   3.576772E+00   3.732478E+00   3.894460E+00   4.002677E+00   4.042597E+00   3.995352E+00   3.872658E+00   3.710909E+00   3.517795E+00   3.313227E+00   3.125253E+00   2.946305E+00   2.803222E+00   2.694345E+00   2.638785E+00   2.634000E+00   2.659325E+00   2.716468E+00   2.789567E+00   2.847126E+00   2.889217E+00   2.889867E+00   2.852236E+00   2.789291E+00   2.706041E+00   2.613165E+00   2.526048E+00   2.464836E+00   2.451845E+00   2.497427E+00   2.601344E+00   2.760486E+00   2.955572E+00   3.156069E+00   3.335021E+00   3.460689E+00   3.530588E+00   3.550590E+00   3.522362E+00   3.436832E+00   3.299606E+00   3.143944E+00   2.984457E+00   2.847684E+00   2.743694E+00   2.675318E+00   2.635980E+00   2.605999E+00   2.594643E+00   2.592102E+00   2.609200E+00   2.639247E+00   2.691181E+00   2.750612E+00   2.812815E+00   2.870487E+00   2.921176E+00   2.980844E+00   3.060471E+00   3.169360E+00   3.313467E+00   3.483057E+00   3.679576E+00   3.872173E+00   4.036766E+00   4.143450E+00   4.185909E+00   4.176809E+00   4.164030E+00   4.130542E+00   4.092694E+00   4.018496E+00   3.918089E+00   3.791944E+00   3.648713E+00   3.509617E+00   3.405233E+00   3.358473E+00   3.389054E+00   3.479896E+00   3.632337E+00   3.854116E+00   4.107810E+00   4.400826E+00   4.727075E+00   5.081604E+00   5.440245E+00   5.796910E+00   6.092442E+00   6.275229E+00   6.310917E+00   6.158755E+00   5.832943E+00   5.430460E+00   4.999113E+00   4.559200E+00   4.133575E+00   3.732144E+00   3.385552E+00   3.080835E+00   2.821289E+00   2.606429E+00   2.437103E+00   2.311206E+00   2.234124E+00   2.206306E+00   2.235612E+00   2.314993E+00   2.455986E+00   2.644189E+00   2.873593E+00   3.128230E+00   3.389467E+00   3.644746E+00   3.861496E+00   4.030286E+00   4.143008E+00   4.209352E+00   4.220292E+00   4.215957E+00   4.167767E+00   4.130865E+00   4.083377E+00   4.052870E+00   4.026736E+00   4.033596E+00   4.065022E+00   4.129702E+00   4.237087E+00   4.388020E+00   4.552681E+00   4.687506E+00   4.764316E+00   4.776405E+00   4.729476E+00   4.654861E+00   4.559300E+00   4.432696E+00   4.291632E+00   4.145145E+00
   3.979159E+00   3.955940E+00   3.915905E+00   3.845944E+00   3.787048E+00   3.702101E+00   3.640269E+00   3.585157E+00   3.538524E+00   3.469836E+00   3.374640E+00   3.260755E+00   3.137095E+00   3.032655E+00   2.943053E+00   2.871687E+00   2.819686E+00   2.790901E+00   2.820156E+00   2.883600E+00   2.984518E+00   3.110496E+00   3.237109E+00   3.391595E+00   3.556923E+00   3.740164E+00   3.941485E+00   4.130784E+00   4.331082E+00   4.529001E+00   4.722234E+00   4.876288E+00   4.994014E+00   5.068200E+00   5.074743E+00   4.980503E+00   4.779167E+00   4.475688E+00   4.123950E+00   3.773570E+00   3.476095E+00   3.219097E+00   3.015982E+00   2.854828E+00   2.731253E+00   2.650371E+00   2.601892E+00   2.606102E+00   2.658621E+00   2.753447E+00   2.901351E+00   3.083132E+00   3.264297E+00   3.425042E+00   3.535419E+00   3.600514E+00   3.640630E+00   3.670643E+00   3.741948E+00   3.855072E+00   4.003238E+00   4.173719E+00   4.335835E+00   4.434438E+00   4.437472E+00   4.351055E+00   4.188476E+00   3.979630E+00   3.749344E+00   3.520202E+00   3.295590E+00   3.104496E+00   2.943852E+00   2.832758E+00   2.759964E+00   2.730392E+00   2.735347E+00   2.771811E+00   2.823738E+00   2.866521E+00   2.879954E+00   2.862186E+00   2.807805E+00   2.741057E+00   2.650431E+00   2.549947E+00   2.459229E+00   2.393184E+00   2.381479E+00   2.431749E+00   2.542130E+00   2.698564E+00   2.900148E+00   3.110043E+00   3.316024E+00   3.494044E+00   3.620701E+00   3.674056E+00   3.670579E+00   3.599545E+00   3.483879E+00   3.343912E+00   3.200191E+00   3.071884E+00   2.981870E+00   2.925894E+00   2.895633E+00   2.879258E+00   2.873778E+00   2.873026E+00   2.885240E+00   2.914239E+00   2.965209E+00   3.022401E+00   3.066219E+00   3.108328E+00   3.122093E+00   3.138955E+00   3.170520E+00   3.221069E+00   3.308515E+00   3.420988E+00   3.553453E+00   3.683242E+00   3.774707E+00   3.814514E+00   3.802915E+00   3.771855E+00   3.744547E+00   3.737295E+00   3.736111E+00   3.736690E+00   3.699759E+00   3.620713E+00   3.521687E+00   3.398571E+00   3.292029E+00   3.229782E+00   3.249745E+00   3.343478E+00   3.512652E+00   3.753528E+00   4.030212E+00   4.332494E+00   4.645457E+00   4.978315E+00   5.325496E+00   5.670214E+00   5.978287E+00   6.190343E+00   6.240239E+00   6.110940E+00   5.835331E+00   5.473261E+00   5.047824E+00   4.617796E+00   4.185577E+00   3.798260E+00   3.451390E+00   3.153274E+00   2.899448E+00   2.672976E+00   2.492174E+00   2.357008E+00   2.272447E+00   2.236301E+00   2.257972E+00   2.327168E+00   2.455553E+00   2.632162E+00   2.854245E+00   3.111391E+00   3.386316E+00   3.643479E+00   3.849138E+00   4.000257E+00   4.092475E+00   4.131840E+00   4.142710E+00   4.116153E+00   4.074398E+00   4.032161E+00   3.994926E+00   3.959707E+00   3.949214E+00   3.954665E+00   4.000144E+00   4.075610E+00   4.202589E+00   4.371964E+00   4.537012E+00   4.675628E+00   4.759280E+00   4.768462E+00   4.728368E+00   4.656207E+00   4.567136E+00   4.446776E+00   4.311452E+00   4.159100E+00
   4.043839E+00   4.084052E+00   4.071281E+00   4.037129E+00   3.960772E+00   3.884987E+00   3.813563E+00   3.759483E+00   3.693049E+00   3.604157E+00   3.480128E+00   3.350230E+00   3.221395E+00   3.114154E+00   3.027682E+00   2.968485E+00   2.913595E+00   2.900871E+00   2.924259E+00   2.988958E+00   3.088043E+00   3.214286E+00   3.341918E+00   3.478535E+00   3.627168E+00   3.797370E+00   3.965765E+00   4.147802E+00   4.341972E+00   4.551994E+00   4.756577E+00   4.954978E+00   5.105502E+00   5.217937E+00   5.244246E+00   5.180556E+00   5.009515E+00   4.736696E+00   4.380864E+00   4.003985E+00   3.651804E+00   3.363700E+00   3.126585E+00   2.944905E+00   2.819415E+00   2.735609E+00   2.706828E+00   2.716581E+00   2.787057E+00   2.908804E+00   3.080247E+00   3.272199E+00   3.458061E+00   3.628363E+00   3.748036E+00   3.826297E+00   3.874536E+00   3.941176E+00   4.036214E+00   4.175700E+00   4.366673E+00   4.565947E+00   4.748859E+00   4.855785E+00   4.847262E+00   4.723678E+00   4.529929E+00   4.301111E+00   4.056756E+00   3.805521E+00   3.577811E+00   3.378620E+00   3.201758E+00   3.065620E+00   2.967964E+00   2.905659E+00   2.885926E+00   2.880407E+00   2.895930E+00   2.904488E+00   2.899482E+00   2.858549E+00   2.797926E+00   2.723428E+00   2.642186E+00   2.554404E+00   2.475027E+00   2.429972E+00   2.430764E+00   2.496376E+00   2.613070E+00   2.781550E+00   2.975535E+00   3.193092E+00   3.412039E+00   3.608006E+00   3.763413E+00   3.838063E+00   3.843000E+00   3.784811E+00   3.672755E+00   3.546896E+00   3.415930E+00   3.298676E+00   3.212378E+00   3.164495E+00   3.148716E+00   3.143508E+00   3.147794E+00   3.159721E+00   3.178735E+00   3.207427E+00   3.260117E+00   3.310903E+00   3.340423E+00   3.345844E+00   3.324548E+00   3.287877E+00   3.258333E+00   3.245018E+00   3.259801E+00   3.298024E+00   3.354424E+00   3.410134E+00   3.442373E+00   3.444339E+00   3.415306E+00   3.382410E+00   3.375265E+00   3.390487E+00   3.445181E+00   3.503121E+00   3.535944E+00   3.519450E+00   3.462290E+00   3.369855E+00   3.284597E+00   3.227952E+00   3.242960E+00   3.322354E+00   3.490771E+00   3.741371E+00   4.034000E+00   4.338426E+00   4.636143E+00   4.931542E+00   5.239766E+00   5.557117E+00   5.847064E+00   6.060142E+00   6.143950E+00   6.063781E+00   5.841001E+00   5.502578E+00   5.103262E+00   4.675902E+00   4.270005E+00   3.886222E+00   3.560173E+00   3.278013E+00   3.028250E+00   2.793551E+00   2.600791E+00   2.452260E+00   2.351962E+00   2.308988E+00   2.314018E+00   2.382506E+00   2.499770E+00   2.669149E+00   2.872194E+00   3.123086E+00   3.385547E+00   3.627916E+00   3.815410E+00   3.944400E+00   4.012268E+00   4.035969E+00   4.031995E+00   3.990258E+00   3.960770E+00   3.940833E+00   3.914616E+00   3.892884E+00   3.875268E+00   3.877881E+00   3.913463E+00   3.978498E+00   4.088047E+00   4.229019E+00   4.381706E+00   4.500984E+00   4.581715E+00   4.594415E+00   4.576137E+00   4.527888E+00   4.443049E+00   4.361035E+00   4.255262E+00   4.139327E+00
   4.118093E+00   4.210648E+00   4.262523E+00   4.249843E+00   4.208344E+00   4.125023E+00   4.065108E+00   3.997358E+00   3.909251E+00   3.779623E+00   3.618759E+00   3.458966E+00   3.315320E+00   3.196648E+00   3.115619E+00   3.068069E+00   3.036019E+00   3.024237E+00   3.037314E+00   3.090829E+00   3.170274E+00   3.275951E+00   3.403268E+00   3.531661E+00   3.672090E+00   3.816254E+00   3.979900E+00   4.159510E+00   4.383469E+00   4.596476E+00   4.813993E+00   5.006171E+00   5.181849E+00   5.289739E+00   5.336368E+00   5.285672E+00   5.156624E+00   4.925453E+00   4.611913E+00   4.239587E+00   3.877681E+00   3.554336E+00   3.295111E+00   3.101088E+00   2.959692E+00   2.877085E+00   2.846762E+00   2.876507E+00   2.957540E+00   3.078133E+00   3.238100E+00   3.413640E+00   3.595396E+00   3.736383E+00   3.842734E+00   3.909971E+00   3.973359E+00   4.058017E+00   4.187436E+00   4.376191E+00   4.611539E+00   4.858739E+00   5.050927E+00   5.164202E+00   5.161414E+00   5.043623E+00   4.842400E+00   4.609904E+00   4.365681E+00   4.127436E+00   3.916667E+00   3.720061E+00   3.534871E+00   3.381967E+00   3.238280E+00   3.137992E+00   3.067910E+00   3.019866E+00   2.986261E+00   2.955329E+00   2.920459E+00   2.866812E+00   2.804121E+00   2.741647E+00   2.668868E+00   2.616174E+00   2.575516E+00   2.565399E+00   2.600807E+00   2.681416E+00   2.828542E+00   3.010431E+00   3.222890E+00   3.449981E+00   3.653619E+00   3.813138E+00   3.943346E+00   4.020748E+00   4.009374E+00   3.952588E+00   3.841827E+00   3.726484E+00   3.610158E+00   3.506344E+00   3.425709E+00   3.373212E+00   3.342639E+00   3.343745E+00   3.354217E+00   3.379807E+00   3.413346E+00   3.449484E+00   3.492381E+00   3.513215E+00   3.511344E+00   3.486271E+00   3.433030E+00   3.358620E+00   3.270528E+00   3.190132E+00   3.132905E+00   3.100487E+00   3.091485E+00   3.086425E+00   3.077530E+00   3.064535E+00   3.046337E+00   3.046667E+00   3.069979E+00   3.129190E+00   3.219952E+00   3.329923E+00   3.413420E+00   3.460857E+00   3.454089E+00   3.415815E+00   3.354537E+00   3.319542E+00   3.333599E+00   3.424718E+00   3.583019E+00   3.817633E+00   4.090497E+00   4.375646E+00   4.642187E+00   4.914599E+00   5.188747E+00   5.481605E+00   5.739248E+00   5.937128E+00   6.021411E+00   5.969939E+00   5.784055E+00   5.507434E+00   5.159055E+00   4.774496E+00   4.399103E+00   4.037368E+00   3.707929E+00   3.425251E+00   3.169198E+00   2.936143E+00   2.729417E+00   2.576574E+00   2.472634E+00   2.422870E+00   2.430688E+00   2.485421E+00   2.601947E+00   2.752223E+00   2.949177E+00   3.173345E+00   3.409625E+00   3.627494E+00   3.804722E+00   3.901812E+00   3.956016E+00   3.969277E+00   3.953877E+00   3.918167E+00   3.893352E+00   3.872929E+00   3.862315E+00   3.836155E+00   3.817874E+00   3.802280E+00   3.815645E+00   3.857181E+00   3.933831E+00   4.037727E+00   4.145257E+00   4.244064E+00   4.295630E+00   4.321028E+00   4.321130E+00   4.298567E+00   4.258645E+00   4.217470E+00   4.165600E+00   4.084911E+00