# LPF package for  MODFLOW-2005, generated by Flopy.
         0    -1E+30         0  
         0
         0
   1.000000E+00
         0
         0
INTERNAL               1 (200E15.6) -1 #hk layer 1                    
   3.962832E+00   3.935345E+00   3.904721E+00   3.862724E+00   3.833990E+00   3.813577E+00   3.802229E+00   3.789486E+00   3.787871E+00   3.761610E+00   3.732174E+00   3.689141E+00   3.641895E+00   3.585474E+00   3.527865E+00   3.488951E+00   3.471432E+00   3.475747E+00   3.488009E+00   3.515119E+00   3.555639E+00   3.610370E+00   3.676400E+00   3.769906E+00   3.856583E+00   3.942756E+00   4.024113E+00   4.102678E+00   4.173418E+00   4.228910E+00   4.263496E+00   4.278170E+00   4.262477E+00   4.208744E+00   4.144107E+00   4.061016E+00   3.983620E+00   3.902448E+00   3.837269E+00   3.780351E+00   3.734294E+00   3.704938E+00   3.677562E+00   3.641359E+00   3.612036E+00   3.596097E+00   3.597720E+00   3.596271E+00   3.596876E+00   3.587501E+00   3.565722E+00   3.538328E+00   3.502479E+00   3.460805E+00   3.425073E+00   3.380330E+00   3.348021E+00   3.330595E+00   3.342573E+00   3.384770E+00   3.437889E+00   3.508666E+00   3.589015E+00   3.667578E+00   3.724953E+00   3.774232E+00   3.803820E+00   3.824056E+00   3.826003E+00   3.806056E+00   3.768624E+00   3.724236E+00   3.683868E+00   3.658823E+00   3.654732E+00   3.647181E+00   3.655463E+00   3.651784E+00   3.644614E+00   3.635220E+00   3.635844E+00   3.623840E+00   3.611507E+00   3.599557E+00   3.583156E+00   3.572294E+00   3.570057E+00   3.582359E+00   3.598306E+00   3.649085E+00   3.714942E+00   3.790928E+00   3.863281E+00   3.918300E+00   3.938009E+00   3.934205E+00   3.911685E+00   3.868040E+00   3.820066E+00   3.755114E+00   3.688687E+00   3.614249E+00   3.538708E+00   3.483414E+00   3.436684E+00   3.398487E+00   3.375307E+00   3.354205E+00   3.352261E+00   3.340748E+00   3.328491E+00   3.308817E+00   3.299249E+00   3.304945E+00   3.313801E+00   3.343967E+00   3.403384E+00   3.481897E+00   3.577418E+00   3.681902E+00   3.773153E+00   3.873416E+00   3.963065E+00   4.047394E+00   4.127108E+00   4.192600E+00   4.268184E+00   4.325125E+00   4.356721E+00   4.372982E+00   4.360144E+00   4.335478E+00   4.308250E+00   4.267454E+00   4.212828E+00   4.168909E+00   4.110904E+00   4.072182E+00   4.050302E+00   4.051450E+00   4.074160E+00   4.106736E+00   4.158734E+00   4.213268E+00   4.279482E+00   4.349080E+00   4.431372E+00   4.525173E+00   4.590721E+00   4.616971E+00   4.595906E+00   4.545427E+00   4.457988E+00   4.371082E+00   4.269429E+00   4.164207E+00   4.064246E+00   3.962343E+00   3.866741E+00   3.760952E+00   3.673757E+00   3.573250E+00   3.493987E+00   3.440154E+00   3.402000E+00   3.385212E+00   3.389246E+00   3.415309E+00   3.461492E+00   3.544986E+00   3.647822E+00   3.756900E+00   3.870641E+00   3.969643E+00   4.043513E+00   4.094766E+00   4.129353E+00   4.160755E+00   4.187251E+00   4.202289E+00   4.222094E+00   4.238172E+00   4.251554E+00   4.250244E+00   4.238752E+00   4.202046E+00   4.152958E+00   4.089814E+00   4.031953E+00   3.993528E+00   3.975469E+00   3.977309E+00   3.985231E+00   4.000266E+00   4.005111E+00   4.010168E+00   4.009860E+00   3.991114E+00   3.983129E+00   3.979255E+00
   3.931164E+00   3.887870E+00   3.829982E+00   3.762823E+00   3.694779E+00   3.655761E+00   3.623771E+00   3.600001E+00   3.585742E+00   3.569334E+00   3.518461E+00   3.459213E+00   3.366535E+00   3.277897E+00   3.189301E+00   3.124595E+00   3.088367E+00   3.089713E+00   3.109143E+00   3.146214E+00   3.207212E+00   3.295093E+00   3.409154E+00   3.546446E+00   3.701566E+00   3.869654E+00   4.044430E+00   4.213099E+00   4.364037E+00   4.476938E+00   4.542846E+00   4.578595E+00   4.539504E+00   4.450029E+00   4.313880E+00   4.166962E+00   4.016904E+00   3.866422E+00   3.721183E+00   3.617146E+00   3.531960E+00   3.477429E+00   3.426449E+00   3.377953E+00   3.326702E+00   3.299164E+00   3.291151E+00   3.285257E+00   3.282566E+00   3.269182E+00   3.241667E+00   3.197842E+00   3.151685E+00   3.091372E+00   3.018983E+00   2.952809E+00   2.904551E+00   2.881214E+00   2.896765E+00   2.955798E+00   3.048280E+00   3.177471E+00   3.316517E+00   3.439476E+00   3.541016E+00   3.620358E+00   3.659935E+00   3.671010E+00   3.654623E+00   3.607846E+00   3.536860E+00   3.463088E+00   3.394864E+00   3.346628E+00   3.318265E+00   3.305758E+00   3.306807E+00   3.317329E+00   3.330845E+00   3.344791E+00   3.346343E+00   3.339866E+00   3.320500E+00   3.291770E+00   3.255755E+00   3.224308E+00   3.214457E+00   3.223412E+00   3.257075E+00   3.326854E+00   3.449655E+00   3.571661E+00   3.708092E+00   3.808136E+00   3.860813E+00   3.865795E+00   3.817349E+00   3.748008E+00   3.658746E+00   3.552994E+00   3.435997E+00   3.309173E+00   3.182658E+00   3.081904E+00   3.002601E+00   2.939407E+00   2.898871E+00   2.875432E+00   2.857714E+00   2.842502E+00   2.823016E+00   2.810427E+00   2.814449E+00   2.823969E+00   2.855734E+00   2.913240E+00   2.996971E+00   3.108396E+00   3.251758E+00   3.408252E+00   3.571030E+00   3.748614E+00   3.920073E+00   4.087055E+00   4.236433E+00   4.381886E+00   4.511744E+00   4.608141E+00   4.648689E+00   4.659111E+00   4.639108E+00   4.593566E+00   4.518991E+00   4.415485E+00   4.309358E+00   4.212284E+00   4.139873E+00   4.086482E+00   4.073571E+00   4.088439E+00   4.138824E+00   4.222687E+00   4.297375E+00   4.407008E+00   4.526014E+00   4.681200E+00   4.854892E+00   5.038215E+00   5.182941E+00   5.230727E+00   5.195742E+00   5.072964E+00   4.905522E+00   4.710770E+00   4.497754E+00   4.285037E+00   4.077609E+00   3.883936E+00   3.689849E+00   3.513480E+00   3.339426E+00   3.195222E+00   3.067323E+00   2.986410E+00   2.935944E+00   2.911085E+00   2.919313E+00   2.971851E+00   3.068516E+00   3.208175E+00   3.374151E+00   3.558353E+00   3.746655E+00   3.909774E+00   4.045701E+00   4.142300E+00   4.213253E+00   4.270612E+00   4.312937E+00   4.347757E+00   4.378993E+00   4.414327E+00   4.424628E+00   4.419830E+00   4.381690E+00   4.328382E+00   4.247490E+00   4.152797E+00   4.068205E+00   4.004755E+00   4.003857E+00   4.018743E+00   4.044752E+00   4.059480E+00   4.057899E+00   4.054685E+00   4.036754E+00   4.011650E+00   3.986622E+00   3.982267E+00
   3.911534E+00   3.831678E+00   3.749347E+00   3.665598E+00   3.598702E+00   3.527792E+00   3.482346E+00   3.448450E+00   3.426639E+00   3.390116E+00   3.342565E+00   3.261852E+00   3.174888E+00   3.070820E+00   2.974879E+00   2.897542E+00   2.853550E+00   2.846243E+00   2.866488E+00   2.912777E+00   2.976776E+00   3.079482E+00   3.216084E+00   3.387874E+00   3.577310E+00   3.793633E+00   4.038223E+00   4.276808E+00   4.495616E+00   4.657613E+00   4.768428E+00   4.801525E+00   4.762879E+00   4.652717E+00   4.500582E+00   4.292952E+00   4.082293E+00   3.863119E+00   3.679901E+00   3.528476E+00   3.415799E+00   3.325036E+00   3.258805E+00   3.194144E+00   3.126535E+00   3.063265E+00   3.038617E+00   3.013551E+00   3.011578E+00   3.010533E+00   3.003989E+00   2.978815E+00   2.952726E+00   2.897429E+00   2.834363E+00   2.772322E+00   2.717556E+00   2.691630E+00   2.709531E+00   2.778983E+00   2.893529E+00   3.038451E+00   3.196822E+00   3.347709E+00   3.465195E+00   3.536674E+00   3.565612E+00   3.554919E+00   3.505510E+00   3.429768E+00   3.323808E+00   3.222685E+00   3.129779E+00   3.063032E+00   3.021080E+00   3.000814E+00   3.008738E+00   3.033564E+00   3.074730E+00   3.111289E+00   3.131294E+00   3.131729E+00   3.116932E+00   3.074469E+00   3.034634E+00   2.993612E+00   2.965258E+00   2.958015E+00   2.984793E+00   3.066983E+00   3.196527E+00   3.362298E+00   3.523926E+00   3.667871E+00   3.738734E+00   3.748335E+00   3.707590E+00   3.629543E+00   3.533549E+00   3.403226E+00   3.255649E+00   3.101698E+00   2.952949E+00   2.817157E+00   2.714297E+00   2.633713E+00   2.576602E+00   2.543561E+00   2.525790E+00   2.512199E+00   2.502294E+00   2.501100E+00   2.520445E+00   2.552382E+00   2.595268E+00   2.671885E+00   2.769060E+00   2.892430E+00   3.055968E+00   3.236900E+00   3.429792E+00   3.652825E+00   3.878048E+00   4.097865E+00   4.299495E+00   4.472370E+00   4.633249E+00   4.738613E+00   4.800521E+00   4.799473E+00   4.754780E+00   4.666526E+00   4.541357E+00   4.402835E+00   4.262171E+00   4.144702E+00   4.046759E+00   4.001862E+00   3.997512E+00   4.042727E+00   4.127941E+00   4.226902E+00   4.359413E+00   4.515087E+00   4.710958E+00   4.934797E+00   5.205067E+00   5.455441E+00   5.643495E+00   5.717489E+00   5.675469E+00   5.512964E+00   5.266061E+00   4.981735E+00   4.677896E+00   4.378193E+00   4.085037E+00   3.801414E+00   3.529376E+00   3.281590E+00   3.065842E+00   2.875649E+00   2.743367E+00   2.652268E+00   2.600442E+00   2.586891E+00   2.616949E+00   2.692924E+00   2.816223E+00   2.983966E+00   3.191703E+00   3.408307E+00   3.631855E+00   3.835933E+00   4.016089E+00   4.145830E+00   4.243388E+00   4.309127E+00   4.361106E+00   4.399628E+00   4.422579E+00   4.430032E+00   4.436923E+00   4.415150E+00   4.373683E+00   4.306034E+00   4.231333E+00   4.167053E+00   4.107324E+00   4.082970E+00   4.095333E+00   4.140293E+00   4.191089E+00   4.206082E+00   4.196068E+00   4.157915E+00   4.116386E+00   4.075882E+00   4.039154E+00   4.009567E+00
   3.896485E+00   3.808245E+00   3.706896E+00   3.617399E+00   3.544361E+00   3.483652E+00   3.426659E+00   3.386551E+00   3.348779E+00   3.305217E+00   3.237938E+00   3.162364E+00   3.060719E+00   2.958941E+00   2.861363E+00   2.788492E+00   2.738348E+00   2.722445E+00   2.739228E+00   2.785927E+00   2.847380E+00   2.944611E+00   3.081632E+00   3.264246E+00   3.476782E+00   3.718605E+00   3.983993E+00   4.265259E+00   4.517042E+00   4.716832E+00   4.850825E+00   4.916129E+00   4.878091E+00   4.797130E+00   4.627406E+00   4.407784E+00   4.159485E+00   3.904315E+00   3.671090E+00   3.491943E+00   3.347365E+00   3.228560E+00   3.124165E+00   3.027845E+00   2.943238E+00   2.872518E+00   2.826585E+00   2.790851E+00   2.786021E+00   2.799523E+00   2.824368E+00   2.847361E+00   2.863644E+00   2.862898E+00   2.829664E+00   2.784343E+00   2.741169E+00   2.725693E+00   2.748502E+00   2.821227E+00   2.940903E+00   3.095307E+00   3.255967E+00   3.401248E+00   3.504380E+00   3.551037E+00   3.540902E+00   3.483052E+00   3.396846E+00   3.283584E+00   3.157855E+00   3.024826E+00   2.914437E+00   2.824931E+00   2.781285E+00   2.772116E+00   2.795336E+00   2.835854E+00   2.895695E+00   2.947607E+00   2.992364E+00   3.008430E+00   2.996212E+00   2.955511E+00   2.894556E+00   2.837337E+00   2.787080E+00   2.764648E+00   2.784208E+00   2.852118E+00   2.985028E+00   3.145583E+00   3.331600E+00   3.491976E+00   3.600774E+00   3.640297E+00   3.616294E+00   3.548397E+00   3.453434E+00   3.323378E+00   3.168866E+00   2.995548E+00   2.832628E+00   2.694651E+00   2.573891E+00   2.487830E+00   2.433961E+00   2.393559E+00   2.380970E+00   2.366959E+00   2.370578E+00   2.385148E+00   2.415882E+00   2.466144E+00   2.529962E+00   2.616249E+00   2.714425E+00   2.835562E+00   2.981907E+00   3.154974E+00   3.350201E+00   3.571312E+00   3.813385E+00   4.059172E+00   4.280729E+00   4.464246E+00   4.608865E+00   4.704050E+00   4.741520E+00   4.728867E+00   4.662062E+00   4.551431E+00   4.399862E+00   4.235909E+00   4.082168E+00   3.944457E+00   3.856300E+00   3.807171E+00   3.816179E+00   3.887539E+00   4.005056E+00   4.149898E+00   4.329092E+00   4.553496E+00   4.811318E+00   5.114467E+00   5.422255E+00   5.737360E+00   5.978916E+00   6.084985E+00   6.044141E+00   5.856127E+00   5.551564E+00   5.189002E+00   4.810823E+00   4.452517E+00   4.093223E+00   3.749139E+00   3.425570E+00   3.138963E+00   2.889766E+00   2.700999E+00   2.551092E+00   2.445515E+00   2.391891E+00   2.380631E+00   2.413126E+00   2.497896E+00   2.634371E+00   2.831487E+00   3.050205E+00   3.292126E+00   3.532059E+00   3.766587E+00   3.958081E+00   4.113065E+00   4.209218E+00   4.281390E+00   4.318919E+00   4.339025E+00   4.336963E+00   4.334432E+00   4.302489E+00   4.280348E+00   4.230899E+00   4.188894E+00   4.154673E+00   4.129176E+00   4.138226E+00   4.184700E+00   4.258341E+00   4.340447E+00   4.393573E+00   4.415231E+00   4.385743E+00   4.323057E+00   4.236825E+00   4.155901E+00   4.091892E+00   4.036499E+00
   3.901859E+00   3.810020E+00   3.713317E+00   3.630547E+00   3.558893E+00   3.493376E+00   3.438491E+00   3.387046E+00   3.350519E+00   3.289216E+00   3.216871E+00   3.122073E+00   3.023948E+00   2.923162E+00   2.831801E+00   2.753634E+00   2.702217E+00   2.679254E+00   2.700320E+00   2.743102E+00   2.818196E+00   2.927086E+00   3.056808E+00   3.230819E+00   3.438905E+00   3.675992E+00   3.933104E+00   4.188130E+00   4.435769E+00   4.642280E+00   4.792610E+00   4.872658E+00   4.908949E+00   4.864741E+00   4.746727E+00   4.554020E+00   4.323785E+00   4.030041E+00   3.758839E+00   3.508413E+00   3.313736E+00   3.156274E+00   3.022315E+00   2.903378E+00   2.799320E+00   2.721035E+00   2.670823E+00   2.638702E+00   2.636307E+00   2.669940E+00   2.738309E+00   2.822515E+00   2.909606E+00   2.960109E+00   2.975684E+00   2.959842E+00   2.945043E+00   2.944430E+00   2.982520E+00   3.057197E+00   3.184038E+00   3.341022E+00   3.498372E+00   3.626813E+00   3.702717E+00   3.704978E+00   3.643041E+00   3.534648E+00   3.393831E+00   3.237413E+00   3.073815E+00   2.923808E+00   2.788072E+00   2.690956E+00   2.641422E+00   2.635959E+00   2.665033E+00   2.729154E+00   2.799914E+00   2.866193E+00   2.918240E+00   2.931490E+00   2.906392E+00   2.851979E+00   2.782096E+00   2.705343E+00   2.637054E+00   2.599621E+00   2.599526E+00   2.654123E+00   2.769995E+00   2.935923E+00   3.119339E+00   3.298728E+00   3.442123E+00   3.518104E+00   3.533999E+00   3.508340E+00   3.444401E+00   3.340421E+00   3.192391E+00   3.012743E+00   2.849171E+00   2.706477E+00   2.596044E+00   2.518689E+00   2.464264E+00   2.428300E+00   2.404641E+00   2.406875E+00   2.422238E+00   2.448598E+00   2.486732E+00   2.553330E+00   2.621872E+00   2.698250E+00   2.789820E+00   2.883251E+00   3.000595E+00   3.141194E+00   3.320016E+00   3.524211E+00   3.753772E+00   3.991886E+00   4.188143E+00   4.355790E+00   4.461535E+00   4.499818E+00   4.505642E+00   4.484972E+00   4.418927E+00   4.309610E+00   4.154469E+00   4.001514E+00   3.840284E+00   3.701676E+00   3.600924E+00   3.565645E+00   3.584815E+00   3.674483E+00   3.811474E+00   4.004074E+00   4.232934E+00   4.505601E+00   4.816974E+00   5.151907E+00   5.489686E+00   5.837253E+00   6.113378E+00   6.268866E+00   6.251356E+00   6.082040E+00   5.759351E+00   5.355713E+00   4.928295E+00   4.505167E+00   4.099530E+00   3.720884E+00   3.369134E+00   3.066843E+00   2.811588E+00   2.601529E+00   2.445932E+00   2.332762E+00   2.271072E+00   2.255283E+00   2.288639E+00   2.376602E+00   2.523708E+00   2.715722E+00   2.945139E+00   3.191061E+00   3.443400E+00   3.689022E+00   3.913287E+00   4.079751E+00   4.192464E+00   4.246246E+00   4.278943E+00   4.267858E+00   4.247288E+00   4.206026E+00   4.172010E+00   4.134563E+00   4.107388E+00   4.080662E+00   4.087918E+00   4.122183E+00   4.193032E+00   4.300483E+00   4.423185E+00   4.540696E+00   4.622560E+00   4.633459E+00   4.597550E+00   4.522256E+00   4.414289E+00   4.300005E+00   4.189010E+00   4.089261E+00
   3.927796E+00   3.860664E+00   3.788684E+00   3.723267E+00   3.643791E+00   3.575147E+00   3.507260E+00   3.460248E+00   3.412726E+00   3.347843E+00   3.263180E+00   3.164482E+00   3.053259E+00   2.956599E+00   2.865282E+00   2.791817E+00   2.733774E+00   2.716709E+00   2.735199E+00   2.798474E+00   2.882221E+00   2.998253E+00   3.128517E+00   3.293602E+00   3.480976E+00   3.681795E+00   3.902033E+00   4.138649E+00   4.358938E+00   4.559711E+00   4.716579E+00   4.837520E+00   4.929180E+00   4.954741E+00   4.886702E+00   4.749210E+00   4.528969E+00   4.226834E+00   3.908036E+00   3.603955E+00   3.350724E+00   3.144300E+00   2.970500E+00   2.836733E+00   2.727943E+00   2.642419E+00   2.593436E+00   2.572201E+00   2.599391E+00   2.666625E+00   2.775731E+00   2.912964E+00   3.051089E+00   3.165495E+00   3.227514E+00   3.263351E+00   3.280711E+00   3.300676E+00   3.350528E+00   3.445251E+00   3.576190E+00   3.731989E+00   3.894075E+00   4.002405E+00   4.042430E+00   3.995260E+00   3.872609E+00   3.710864E+00   3.517728E+00   3.313125E+00   3.125122E+00   2.946153E+00   2.803062E+00   2.694192E+00   2.638653E+00   2.633908E+00   2.659295E+00   2.716532E+00   2.789757E+00   2.847471E+00   2.889730E+00   2.890538E+00   2.853042E+00   2.790201E+00   2.707020E+00   2.614173E+00   2.527048E+00   2.465796E+00   2.452741E+00   2.498247E+00   2.602077E+00   2.761118E+00   2.956083E+00   3.156431E+00   3.335214E+00   3.460717E+00   3.530480E+00   3.550384E+00   3.522097E+00   3.436546E+00   3.299329E+00   3.143697E+00   2.984257E+00   2.847540E+00   2.743608E+00   2.675286E+00   2.636001E+00   2.606067E+00   2.594755E+00   2.592255E+00   2.609387E+00   2.639462E+00   2.691424E+00   2.750882E+00   2.813106E+00   2.870784E+00   2.921465E+00   2.981113E+00   3.060707E+00   3.169560E+00   3.313629E+00   3.483174E+00   3.679642E+00   3.872173E+00   4.036676E+00   4.143258E+00   4.185602E+00   4.176380E+00   4.163482E+00   4.129884E+00   4.091939E+00   4.017670E+00   3.917225E+00   3.791081E+00   3.647899E+00   3.508888E+00   3.404609E+00   3.357961E+00   3.388654E+00   3.479611E+00   3.632155E+00   3.854025E+00   4.107793E+00   4.400852E+00   4.727110E+00   5.081618E+00   5.440207E+00   5.796776E+00   6.092181E+00   6.274828E+00   6.310397E+00   6.158196E+00   5.832445E+00   5.430105E+00   4.998935E+00   4.559210E+00   4.133753E+00   3.732460E+00   3.385969E+00   3.081321E+00   2.821821E+00   2.606988E+00   2.437675E+00   2.311774E+00   2.234674E+00   2.206824E+00   2.236082E+00   2.315401E+00   2.456315E+00   2.644420E+00   2.873702E+00   3.128195E+00   3.389276E+00   3.644397E+00   3.861006E+00   4.029684E+00   4.142331E+00   4.208654E+00   4.219630E+00   4.215373E+00   4.167299E+00   4.130521E+00   4.083160E+00   4.052753E+00   4.026700E+00   4.033606E+00   4.065046E+00   4.129704E+00   4.237024E+00   4.387850E+00   4.552376E+00   4.687069E+00   4.763775E+00   4.775805E+00   4.728863E+00   4.654274E+00   4.558782E+00   4.432284E+00   4.291349E+00   4.145005E+00
   3.979249E+00   3.956115E+00   3.916137E+00   3.846206E+00   3.787320E+00   3.702368E+00   3.640517E+00   3.585381E+00   3.538722E+00   3.470019E+00   3.374815E+00   3.260929E+00   3.137267E+00   3.032833E+00   2.943243E+00   2.871898E+00   2.819927E+00   2.791184E+00   2.820497E+00   2.884010E+00   2.985007E+00   3.111069E+00   3.237755E+00   3.392293E+00   3.557648E+00   3.740892E+00   3.942186E+00   4.131431E+00   4.331659E+00   4.529497E+00   4.722633E+00   4.876577E+00   4.994178E+00   5.068235E+00   5.074651E+00   4.980304E+00   4.778899E+00   4.475398E+00   4.123682E+00   3.773356E+00   3.475946E+00   3.219009E+00   3.015935E+00   2.854803E+00   2.731228E+00   2.650333E+00   2.601829E+00   2.606006E+00   2.658475E+00   2.753232E+00   2.901044E+00   3.082712E+00   3.263764E+00   3.424407E+00   3.534708E+00   3.599762E+00   3.639873E+00   3.669910E+00   3.741262E+00   3.854461E+00   4.002733E+00   4.173337E+00   4.335594E+00   4.434340E+00   4.437494E+00   4.351153E+00   4.188600E+00   3.979739E+00   3.749404E+00   3.520201E+00   3.295532E+00   3.104390E+00   2.943712E+00   2.832602E+00   2.759819E+00   2.730278E+00   2.735293E+00   2.771849E+00   2.823903E+00   2.866838E+00   2.880434E+00   2.862828E+00   2.808589E+00   2.741957E+00   2.651404E+00   2.550949E+00   2.460219E+00   2.394130E+00   2.382362E+00   2.432558E+00   2.542857E+00   2.699191E+00   2.900659E+00   3.110406E+00   3.316218E+00   3.494067E+00   3.620584E+00   3.673841E+00   3.670304E+00   3.599247E+00   3.483591E+00   3.343661E+00   3.199997E+00   3.071762E+00   2.981818E+00   2.925908E+00   2.895702E+00   2.879376E+00   2.873936E+00   2.873221E+00   2.885460E+00   2.914476E+00   2.965459E+00   3.022662E+00   3.066482E+00   3.108586E+00   3.122335E+00   3.139175E+00   3.170710E+00   3.221228E+00   3.308642E+00   3.421077E+00   3.553499E+00   3.683233E+00   3.774629E+00   3.814351E+00   3.802658E+00   3.771499E+00   3.744088E+00   3.736737E+00   3.735465E+00   3.735970E+00   3.698990E+00   3.619935E+00   3.520937E+00   3.397895E+00   3.291450E+00   3.229311E+00   3.249386E+00   3.343230E+00   3.512503E+00   3.753463E+00   4.030210E+00   4.332520E+00   4.645470E+00   4.978288E+00   5.325393E+00   5.669995E+00   5.977922E+00   6.189831E+00   6.239604E+00   6.110252E+00   5.834691E+00   5.472755E+00   5.047512E+00   4.617696E+00   4.185678E+00   3.798530E+00   3.451790E+00   3.153769E+00   2.900011E+00   2.673582E+00   2.492803E+00   2.357638E+00   2.273059E+00   2.236876E+00   2.258492E+00   2.327615E+00   2.455911E+00   2.632408E+00   2.854352E+00   3.111335E+00   3.386081E+00   3.643068E+00   3.848573E+00   3.999577E+00   4.091721E+00   4.131064E+00   4.141973E+00   4.115505E+00   4.073866E+00   4.031762E+00   3.994648E+00   3.959534E+00   3.949120E+00   3.954620E+00   4.000110E+00   4.075551E+00   4.202455E+00   4.371707E+00   4.536602E+00   4.675075E+00   4.758614E+00   4.767743E+00   4.727644E+00   4.655530E+00   4.566545E+00   4.446311E+00   4.311135E+00   4.158941E+00
   4.043918E+00   4.084198E+00   4.071481E+00   4.037354E+00   3.961001E+00   3.885201E+00   3.813751E+00   3.759643E+00   3.693192E+00   3.604296E+00   3.480276E+00   3.350394E+00   3.221581E+00   3.114366E+00   3.027928E+00   2.968774E+00   2.913934E+00   2.901276E+00   2.924745E+00   2.989538E+00   3.088729E+00   3.215081E+00   3.342814E+00   3.479501E+00   3.628176E+00   3.798389E+00   3.966759E+00   4.148741E+00   4.342831E+00   4.552743E+00   4.757195E+00   4.955444E+00   5.105804E+00   5.218060E+00   5.244201E+00   5.180367E+00   5.009229E+00   4.736368E+00   4.380553E+00   4.003732E+00   3.651623E+00   3.363586E+00   3.126521E+00   2.944870E+00   2.819390E+00   2.735580E+00   2.706782E+00   2.716506E+00   2.786939E+00   2.908620E+00   3.079968E+00   3.271803E+00   3.457548E+00   3.627755E+00   3.747369E+00   3.825607E+00   3.873861E+00   3.940546E+00   4.035654E+00   4.175234E+00   4.366325E+00   4.565745E+00   4.748819E+00   4.855897E+00   4.847487E+00   4.723958E+00   4.530214E+00   4.301355E+00   4.056934E+00   3.805615E+00   3.577826E+00   3.378560E+00   3.201638E+00   3.065469E+00   2.967811E+00   2.905536E+00   2.885866E+00   2.880441E+00   2.896085E+00   2.904786E+00   2.899938E+00   2.859159E+00   2.798681E+00   2.724296E+00   2.643132E+00   2.555381E+00   2.475991E+00   2.430893E+00   2.431625E+00   2.497166E+00   2.613779E+00   2.782161E+00   2.976022E+00   3.193432E+00   3.412213E+00   3.608012E+00   3.763281E+00   3.837833E+00   3.842716E+00   3.784513E+00   3.672478E+00   3.546666E+00   3.415773E+00   3.298597E+00   3.212375E+00   3.164559E+00   3.148838E+00   3.143676E+00   3.147997E+00   3.159949E+00   3.178978E+00   3.207672E+00   3.260359E+00   3.311129E+00   3.340628E+00   3.346026E+00   3.324709E+00   3.288017E+00   3.258453E+00   3.245116E+00   3.259877E+00   3.298076E+00   3.354450E+00   3.410130E+00   3.442323E+00   3.444231E+00   3.415128E+00   3.382152E+00   3.374921E+00   3.390054E+00   3.444664E+00   3.502531E+00   3.535300E+00   3.518786E+00   3.461645E+00   3.369269E+00   3.284097E+00   3.227554E+00   3.242676E+00   3.322181E+00   3.490695E+00   3.741372E+00   4.034050E+00   4.338484E+00   4.636175E+00   4.931520E+00   5.239654E+00   5.556872E+00   5.846661E+00   6.059582E+00   6.143268E+00   6.063043E+00   5.840297E+00   5.501996E+00   5.102860E+00   4.675715E+00   4.270030E+00   3.886431E+00   3.560530E+00   3.278492E+00   3.028820E+00   2.794182E+00   2.601459E+00   2.452937E+00   2.352623E+00   2.309609E+00   2.314579E+00   2.382989E+00   2.500152E+00   2.669402E+00   2.872290E+00   3.123006E+00   3.385279E+00   3.627463E+00   3.814800E+00   3.943670E+00   4.011462E+00   4.035142E+00   4.031205E+00   3.989554E+00   3.960177E+00   3.940361E+00   3.914263E+00   3.892628E+00   3.875092E+00   3.877757E+00   3.913356E+00   3.978363E+00   4.087841E+00   4.228701E+00   4.381245E+00   4.500385E+00   4.581007E+00   4.593647E+00   4.575367E+00   4.527171E+00   4.442430E+00   4.360545E+00   4.254927E+00   4.139160E+00
   4.118143E+00   4.210742E+00   4.262651E+00   4.249987E+00   4.208486E+00   4.125152E+00   4.065210E+00   3.997440E+00   3.909323E+00   3.779701E+00   3.618859E+00   3.459103E+00   3.315501E+00   3.196876E+00   3.115904E+00   3.068418E+00   3.036445E+00   3.024756E+00   3.037942E+00   3.091579E+00   3.171153E+00   3.276961E+00   3.404402E+00   3.532888E+00   3.673366E+00   3.817541E+00   3.981163E+00   4.160717E+00   4.384586E+00   4.597458E+00   4.814806E+00   5.006796E+00   5.182271E+00   5.289949E+00   5.336377E+00   5.285505E+00   5.156326E+00   4.925093E+00   4.611552E+00   4.239281E+00   3.877448E+00   3.554178E+00   3.295011E+00   3.101029E+00   2.959656E+00   2.877055E+00   2.846721E+00   2.876439E+00   2.957427E+00   3.077953E+00   3.237826E+00   3.413254E+00   3.594904E+00   3.735815E+00   3.842132E+00   3.909372E+00   3.972806E+00   4.057534E+00   4.187045E+00   4.375903E+00   4.611381E+00   4.858732E+00   5.051081E+00   5.164501E+00   5.161809E+00   5.044058E+00   4.842819E+00   4.610270E+00   4.365962E+00   4.127621E+00   3.916753E+00   3.720053E+00   3.534786E+00   3.381837E+00   3.238142E+00   3.137882E+00   3.067863E+00   3.019909E+00   2.986412E+00   2.955607E+00   2.920878E+00   2.867379E+00   2.804825E+00   2.742463E+00   2.669759E+00   2.617102E+00   2.576440E+00   2.566292E+00   2.601647E+00   2.682191E+00   2.829235E+00   3.011019E+00   3.223345E+00   3.450278E+00   3.653746E+00   3.813102E+00   3.943178E+00   4.020495E+00   4.009079E+00   3.952298E+00   3.841578E+00   3.726302E+00   3.610058E+00   3.506325E+00   3.425762E+00   3.373327E+00   3.342808E+00   3.343952E+00   3.354448E+00   3.380051E+00   3.413592E+00   3.449718E+00   3.492587E+00   3.513383E+00   3.511469E+00   3.486365E+00   3.433099E+00   3.358673E+00   3.270571E+00   3.190169E+00   3.132938E+00   3.100516E+00   3.091510E+00   3.086439E+00   3.077522E+00   3.064491E+00   3.046240E+00   3.046505E+00   3.069745E+00   3.128879E+00   3.219568E+00   3.329474E+00   3.412930E+00   3.460350E+00   3.453603E+00   3.415380E+00   3.354183E+00   3.319284E+00   3.333451E+00   3.424675E+00   3.583073E+00   3.817761E+00   4.090671E+00   4.375826E+00   4.642336E+00   4.914684E+00   5.188724E+00   5.481434E+00   5.738905E+00   5.936613E+00   6.020751E+00   5.969204E+00   5.783327E+00   5.506790E+00   5.158559E+00   4.774199E+00   4.399014E+00   4.037469E+00   3.708198E+00   3.425667E+00   3.169731E+00   2.936766E+00   2.730096E+00   2.577280E+00   2.473332E+00   2.423530E+00   2.431283E+00   2.485928E+00   2.602338E+00   2.752468E+00   2.949256E+00   3.173243E+00   3.409337E+00   3.627024E+00   3.804091E+00   3.901060E+00   3.955181E+00   3.968415E+00   3.953046E+00   3.917412E+00   3.892697E+00   3.872393E+00   3.861891E+00   3.835832E+00   3.817633E+00   3.802095E+00   3.815481E+00   3.856997E+00   3.933593E+00   4.037402E+00   4.144823E+00   4.243515E+00   4.294986E+00   4.320327E+00   4.320424E+00   4.297905E+00   4.258066E+00   4.217007E+00   4.165277E+00   4.084748E+00