# LPF package for  MODFLOW-2005, generated by Flopy.
         0    -1E+30         0  
         0
         0
   1.000000E+00
         0
         0
INTERNAL               1 (200E15.6) -1 #hk layer 1                    
   3.962821E+00   3.935319E+00   3.904688E+00   3.862690E+00   3.833952E+00   3.813532E+00   3.802175E+00   3.789430E+00   3.787809E+00   3.761542E+00   3.732102E+00   3.689071E+00   3.641836E+00   3.585428E+00   3.527833E+00   3.488933E+00   3.471432E+00   3.475759E+00   3.488027E+00   3.515131E+00   3.555642E+00   3.610357E+00   3.676368E+00   3.769861E+00   3.856524E+00   3.942689E+00   4.024039E+00   4.102596E+00   4.173331E+00   4.228821E+00   4.263406E+00   4.278081E+00   4.262396E+00   4.208674E+00   4.144054E+00   4.060981E+00   3.983608E+00   3.902468E+00   3.837322E+00   3.780438E+00   3.734414E+00   3.705091E+00   3.677740E+00   3.641555E+00   3.612243E+00   3.596316E+00   3.597952E+00   3.596513E+00   3.597121E+00   3.587742E+00   3.565946E+00   3.538537E+00   3.502675E+00   3.460995E+00   3.425264E+00   3.380524E+00   3.348218E+00   3.330796E+00   3.342776E+00   3.384979E+00   3.438105E+00   3.508888E+00   3.589239E+00   3.667801E+00   3.725163E+00   3.774422E+00   3.803991E+00   3.824208E+00   3.826139E+00   3.806179E+00   3.768732E+00   3.724329E+00   3.683944E+00   3.658880E+00   3.654773E+00   3.647207E+00   3.655473E+00   3.651779E+00   3.644590E+00   3.635170E+00   3.635766E+00   3.623739E+00   3.611389E+00   3.599427E+00   3.583017E+00   3.572152E+00   3.569918E+00   3.582226E+00   3.598186E+00   3.648978E+00   3.714850E+00   3.790856E+00   3.863233E+00   3.918275E+00   3.938008E+00   3.934232E+00   3.911740E+00   3.868112E+00   3.820146E+00   3.755198E+00   3.688778E+00   3.614353E+00   3.538824E+00   3.483543E+00   3.436824E+00   3.398638E+00   3.375469E+00   3.354373E+00   3.352423E+00   3.340896E+00   3.328618E+00   3.308918E+00   3.299320E+00   3.304991E+00   3.313826E+00   3.343974E+00   3.403381E+00   3.481891E+00   3.577414E+00   3.681900E+00   3.773154E+00   3.873417E+00   3.963062E+00   4.047386E+00   4.127098E+00   4.192593E+00   4.268183E+00   4.325130E+00   4.356739E+00   4.373013E+00   4.360190E+00   4.335550E+00   4.308350E+00   4.267570E+00   4.212950E+00   4.169025E+00   4.111010E+00   4.072273E+00   4.050368E+00   4.051496E+00   4.074185E+00   4.106747E+00   4.158731E+00   4.213256E+00   4.279466E+00   4.349069E+00   4.431371E+00   4.525187E+00   4.590741E+00   4.616994E+00   4.595928E+00   4.545445E+00   4.457990E+00   4.371060E+00   4.269374E+00   4.164118E+00   4.064127E+00   3.962200E+00   3.866585E+00   3.760790E+00   3.673594E+00   3.573091E+00   3.493836E+00   3.440012E+00   3.401865E+00   3.385077E+00   3.389112E+00   3.415179E+00   3.461375E+00   3.544887E+00   3.647745E+00   3.756850E+00   3.870613E+00   3.969634E+00   4.043521E+00   4.094790E+00   4.129393E+00   4.160806E+00   4.187316E+00   4.202370E+00   4.222192E+00   4.238291E+00   4.251694E+00   4.250404E+00   4.238932E+00   4.202242E+00   4.153163E+00   4.090024E+00   4.032164E+00   3.993741E+00   3.975675E+00   3.977502E+00   3.985404E+00   4.000411E+00   4.005226E+00   4.010255E+00   4.009923E+00   3.991156E+00   3.983154E+00   3.979266E+00
   3.931144E+00   3.887832E+00   3.829930E+00   3.762765E+00   3.694717E+00   3.655692E+00   3.623693E+00   3.599911E+00   3.585642E+00   3.569226E+00   3.518351E+00   3.459111E+00   3.366449E+00   3.277832E+00   3.189262E+00   3.124582E+00   3.088379E+00   3.089746E+00   3.109182E+00   3.146250E+00   3.207229E+00   3.295083E+00   3.409108E+00   3.546365E+00   3.701456E+00   3.869518E+00   4.044272E+00   4.212927E+00   4.363854E+00   4.476751E+00   4.542656E+00   4.578411E+00   4.539338E+00   4.449893E+00   4.313777E+00   4.166900E+00   4.016887E+00   3.866459E+00   3.721277E+00   3.617298E+00   3.532171E+00   3.477693E+00   3.426758E+00   3.378300E+00   3.327078E+00   3.299563E+00   3.291569E+00   3.285686E+00   3.283000E+00   3.269606E+00   3.242067E+00   3.198210E+00   3.152031E+00   3.091703E+00   3.019307E+00   2.953130E+00   2.904875E+00   2.881541E+00   2.897103E+00   2.956149E+00   3.048647E+00   3.177855E+00   3.316913E+00   3.439871E+00   3.541393E+00   3.620704E+00   3.660243E+00   3.671284E+00   3.654860E+00   3.608045E+00   3.537024E+00   3.463218E+00   3.394964E+00   3.346700E+00   3.318313E+00   3.305784E+00   3.306807E+00   3.317301E+00   3.330782E+00   3.344683E+00   3.346190E+00   3.339670E+00   3.320276E+00   3.291526E+00   3.255504E+00   3.224057E+00   3.214211E+00   3.223181E+00   3.256865E+00   3.326669E+00   3.449499E+00   3.571542E+00   3.708014E+00   3.808107E+00   3.860830E+00   3.865860E+00   3.817454E+00   3.748146E+00   3.658900E+00   3.553158E+00   3.436168E+00   3.309357E+00   3.182858E+00   3.082122E+00   3.002832E+00   2.939651E+00   2.899126E+00   2.875689E+00   2.857960E+00   2.842727E+00   2.823210E+00   2.810582E+00   2.814562E+00   2.824044E+00   2.855778E+00   2.913260E+00   2.996973E+00   3.108390E+00   3.251753E+00   3.408251E+00   3.571034E+00   3.748620E+00   3.920074E+00   4.087049E+00   4.236422E+00   4.381876E+00   4.511733E+00   4.608138E+00   4.648705E+00   4.659158E+00   4.639192E+00   4.593695E+00   4.519163E+00   4.415688E+00   4.309571E+00   4.212494E+00   4.140064E+00   4.086642E+00   4.073691E+00   4.088518E+00   4.138867E+00   4.222698E+00   4.297361E+00   4.406976E+00   4.525981E+00   4.681178E+00   4.854895E+00   5.038245E+00   5.182993E+00   5.230788E+00   5.195795E+00   5.072993E+00   4.905510E+00   4.710701E+00   4.497626E+00   4.284854E+00   4.077375E+00   3.883666E+00   3.689565E+00   3.513195E+00   3.339149E+00   3.194955E+00   3.067071E+00   2.986172E+00   2.935713E+00   2.910861E+00   2.919090E+00   2.971632E+00   3.068309E+00   3.207990E+00   3.373998E+00   3.558238E+00   3.746579E+00   3.909736E+00   4.045699E+00   4.142333E+00   4.213327E+00   4.270718E+00   4.313075E+00   4.347926E+00   4.379199E+00   4.414572E+00   4.424912E+00   4.420150E+00   4.382041E+00   4.328760E+00   4.247888E+00   4.153199E+00   4.068608E+00   4.005153E+00   4.004248E+00   4.019109E+00   4.045084E+00   4.059764E+00   4.058125E+00   4.054859E+00   4.036882E+00   4.011740E+00   3.986678E+00   3.982295E+00
   3.911515E+00   3.831640E+00   3.749293E+00   3.665535E+00   3.598633E+00   3.527717E+00   3.482267E+00   3.448361E+00   3.426540E+00   3.390011E+00   3.342462E+00   3.261760E+00   3.174818E+00   3.070779E+00   2.974868E+00   2.897561E+00   2.853598E+00   2.846309E+00   2.866564E+00   2.912845E+00   2.976820E+00   3.079484E+00   3.216038E+00   3.387773E+00   3.577162E+00   3.793444E+00   4.037998E+00   4.276558E+00   4.495354E+00   4.657347E+00   4.768165E+00   4.801277E+00   4.762664E+00   4.652540E+00   4.500453E+00   4.292880E+00   4.082284E+00   3.863177E+00   3.680029E+00   3.528675E+00   3.416070E+00   3.325377E+00   3.259209E+00   3.194600E+00   3.127029E+00   3.063790E+00   3.039164E+00   3.014111E+00   3.012141E+00   3.011086E+00   3.004514E+00   2.979310E+00   2.953195E+00   2.897880E+00   2.834798E+00   2.772750E+00   2.717980E+00   2.692060E+00   2.709971E+00   2.779442E+00   2.894011E+00   3.038952E+00   3.197334E+00   3.348218E+00   3.465682E+00   3.537121E+00   3.566009E+00   3.555260E+00   3.505793E+00   3.429996E+00   3.323985E+00   3.222817E+00   3.129870E+00   3.063091E+00   3.021111E+00   3.000819E+00   3.008713E+00   3.033498E+00   3.074617E+00   3.111118E+00   3.131066E+00   3.131452E+00   3.116618E+00   3.074135E+00   3.034292E+00   2.993275E+00   2.964935E+00   2.957717E+00   2.984525E+00   3.066752E+00   3.196338E+00   3.362157E+00   3.523846E+00   3.667858E+00   3.738786E+00   3.748445E+00   3.707751E+00   3.629738E+00   3.533770E+00   3.403457E+00   3.255887E+00   3.101948E+00   2.953211E+00   2.817431E+00   2.714584E+00   2.634006E+00   2.576897E+00   2.543851E+00   2.526067E+00   2.512448E+00   2.502511E+00   2.501276E+00   2.520578E+00   2.552474E+00   2.595323E+00   2.671914E+00   2.769071E+00   2.892431E+00   3.055967E+00   3.236907E+00   3.429805E+00   3.652839E+00   3.878053E+00   4.097855E+00   4.299468E+00   4.472330E+00   4.633197E+00   4.738564E+00   4.800498E+00   4.799494E+00   4.754859E+00   4.666669E+00   4.541560E+00   4.403075E+00   4.262428E+00   4.144952E+00   4.046983E+00   4.002046E+00   3.997653E+00   4.042816E+00   4.127983E+00   4.226902E+00   4.359380E+00   4.515034E+00   4.710905E+00   4.934762E+00   5.205062E+00   5.455475E+00   5.643559E+00   5.717565E+00   5.675535E+00   5.512981E+00   5.266006E+00   4.981595E+00   4.677678E+00   4.377909E+00   4.084707E+00   3.801058E+00   3.529011E+00   3.281233E+00   3.065499E+00   2.875325E+00   2.743060E+00   2.651976E+00   2.600159E+00   2.586610E+00   2.616667E+00   2.692642E+00   2.815953E+00   2.983718E+00   3.191486E+00   3.408130E+00   3.631725E+00   3.835860E+00   4.016073E+00   4.145882E+00   4.243501E+00   4.309294E+00   4.361319E+00   4.399879E+00   4.422870E+00   4.430371E+00   4.437311E+00   4.415585E+00   4.374159E+00   4.306549E+00   4.231876E+00   4.167610E+00   4.107886E+00   4.083529E+00   4.095873E+00   4.140802E+00   4.191550E+00   4.206482E+00   4.196396E+00   4.158173E+00   4.116580E+00   4.076014E+00   4.039235E+00   4.009603E+00
   3.896470E+00   3.808216E+00   3.706863E+00   3.617359E+00   3.544314E+00   3.483602E+00   3.426606E+00   3.386493E+00   3.348714E+00   3.305148E+00   3.237873E+00   3.162313E+00   3.060694E+00   2.958949E+00   2.861407E+00   2.788570E+00   2.738453E+00   2.722568E+00   2.739356E+00   2.786043E+00   2.847466E+00   2.944648E+00   3.081605E+00   3.264150E+00   3.476615E+00   3.718379E+00   3.983722E+00   4.264958E+00   4.516727E+00   4.716516E+00   4.850521E+00   4.915852E+00   4.877852E+00   4.796940E+00   4.627276E+00   4.407722E+00   4.159499E+00   3.904405E+00   3.671254E+00   3.492186E+00   3.347686E+00   3.228957E+00   3.124628E+00   3.028360E+00   2.943794E+00   2.873104E+00   2.827197E+00   2.791474E+00   2.786652E+00   2.800149E+00   2.824980E+00   2.847953E+00   2.864220E+00   2.863456E+00   2.830204E+00   2.784870E+00   2.741691E+00   2.726216E+00   2.749033E+00   2.821773E+00   2.941468E+00   3.095889E+00   3.256554E+00   3.401822E+00   3.504921E+00   3.551527E+00   3.541327E+00   3.483403E+00   3.397127E+00   3.283797E+00   3.158009E+00   3.024927E+00   2.914497E+00   2.824956E+00   2.781282E+00   2.772086E+00   2.795269E+00   2.835742E+00   2.895529E+00   2.947377E+00   2.992067E+00   3.008077E+00   2.995815E+00   2.955096E+00   2.894138E+00   2.836935E+00   2.786703E+00   2.764304E+00   2.783905E+00   2.851860E+00   2.984822E+00   3.145439E+00   3.331526E+00   3.491982E+00   3.600855E+00   3.640446E+00   3.616496E+00   3.548644E+00   3.453709E+00   3.323669E+00   3.169163E+00   2.995853E+00   2.832938E+00   2.694967E+00   2.574213E+00   2.488153E+00   2.434280E+00   2.393867E+00   2.381261E+00   2.367220E+00   2.370802E+00   2.385333E+00   2.416026E+00   2.466247E+00   2.530030E+00   2.616292E+00   2.714449E+00   2.835575E+00   2.981915E+00   3.154984E+00   3.350212E+00   3.571324E+00   3.813387E+00   4.059153E+00   4.280682E+00   4.464163E+00   4.608757E+00   4.703942E+00   4.741439E+00   4.728831E+00   4.662091E+00   4.551535E+00   4.400032E+00   4.236125E+00   4.082403E+00   3.944685E+00   3.856503E+00   3.807338E+00   3.816298E+00   3.887612E+00   4.005078E+00   4.149878E+00   4.329039E+00   4.553427E+00   4.811245E+00   5.114408E+00   5.422223E+00   5.737358E+00   5.978946E+00   6.085027E+00   6.044167E+00   5.856098E+00   5.551453E+00   5.188798E+00   4.810534E+00   4.452159E+00   4.092827E+00   3.748726E+00   3.425159E+00   3.138563E+00   2.889383E+00   2.700636E+00   2.550746E+00   2.445184E+00   2.391566E+00   2.380307E+00   2.412802E+00   2.497574E+00   2.634058E+00   2.831195E+00   3.049947E+00   3.291913E+00   3.531907E+00   3.766507E+00   3.958086E+00   4.113153E+00   4.209383E+00   4.281619E+00   4.319196E+00   4.339346E+00   4.337326E+00   4.334840E+00   4.302944E+00   4.280852E+00   4.231451E+00   4.189489E+00   4.155305E+00   4.129831E+00   4.138897E+00   4.185378E+00   4.259010E+00   4.341091E+00   4.394162E+00   4.415743E+00   4.386166E+00   4.323390E+00   4.237075E+00   4.156076E+00   4.091999E+00   4.036548E+00
   3.901862E+00   3.810024E+00   3.713325E+00   3.630558E+00   3.558906E+00   3.493385E+00   3.438497E+00   3.387047E+00   3.350515E+00   3.289209E+00   3.216870E+00   3.122087E+00   3.023989E+00   2.923236E+00   2.831912E+00   2.753781E+00   2.702394E+00   2.679444E+00   2.700507E+00   2.743269E+00   2.818324E+00   2.927153E+00   3.056799E+00   3.230725E+00   3.438730E+00   3.675750E+00   3.932808E+00   4.187800E+00   4.435421E+00   4.641932E+00   4.792282E+00   4.872365E+00   4.908700E+00   4.864546E+00   4.746598E+00   4.553968E+00   4.323813E+00   4.030149E+00   3.759028E+00   3.508677E+00   3.314073E+00   3.156681E+00   3.022783E+00   2.903894E+00   2.799878E+00   2.721628E+00   2.671445E+00   2.639340E+00   2.636958E+00   2.670598E+00   2.738972E+00   2.823180E+00   2.910272E+00   2.960769E+00   2.976331E+00   2.960474E+00   2.945667E+00   2.945048E+00   2.983138E+00   3.057822E+00   3.184674E+00   3.341665E+00   3.499010E+00   3.627425E+00   3.703283E+00   3.705477E+00   3.643459E+00   3.534980E+00   3.394080E+00   3.237589E+00   3.073927E+00   2.923869E+00   2.788091E+00   2.690943E+00   2.641379E+00   2.635887E+00   2.664927E+00   2.729001E+00   2.799702E+00   2.865910E+00   2.917884E+00   2.931073E+00   2.905937E+00   2.851507E+00   2.781628E+00   2.704895E+00   2.636637E+00   2.599247E+00   2.599201E+00   2.653853E+00   2.769785E+00   2.935783E+00   3.119275E+00   3.298747E+00   3.442227E+00   3.518282E+00   3.534238E+00   3.508629E+00   3.444729E+00   3.340768E+00   3.192744E+00   3.013096E+00   2.849522E+00   2.706828E+00   2.596398E+00   2.519042E+00   2.464609E+00   2.428632E+00   2.404951E+00   2.407152E+00   2.422476E+00   2.448797E+00   2.486889E+00   2.553450E+00   2.621956E+00   2.698307E+00   2.789857E+00   2.883273E+00   3.000607E+00   3.141201E+00   3.320019E+00   3.524207E+00   3.753757E+00   3.991850E+00   4.188072E+00   4.355683E+00   4.461399E+00   4.499677E+00   4.505523E+00   4.484891E+00   4.418904E+00   4.309654E+00   4.154580E+00   4.001670E+00   3.840463E+00   3.701851E+00   3.601077E+00   3.565763E+00   3.584895E+00   3.674520E+00   3.811468E+00   4.004027E+00   4.232859E+00   4.505507E+00   4.816883E+00   5.151823E+00   5.489619E+00   5.837203E+00   6.113343E+00   6.268843E+00   6.251317E+00   6.081954E+00   5.759196E+00   5.355479E+00   4.927986E+00   4.504796E+00   4.099121E+00   3.720455E+00   3.368704E+00   3.066422E+00   2.811179E+00   2.601135E+00   2.445551E+00   2.332395E+00   2.270711E+00   2.254928E+00   2.288288E+00   2.376253E+00   2.523368E+00   2.715403E+00   2.944857E+00   3.190833E+00   3.443240E+00   3.688948E+00   3.913311E+00   4.079880E+00   4.192686E+00   4.246538E+00   4.279286E+00   4.268244E+00   4.247715E+00   4.206489E+00   4.172514E+00   4.135116E+00   4.107992E+00   4.081314E+00   4.088611E+00   4.122913E+00   4.193789E+00   4.301257E+00   4.423960E+00   4.541447E+00   4.623255E+00   4.634065E+00   4.598053E+00   4.522652E+00   4.414587E+00   4.300213E+00   4.189138E+00   4.089321E+00
   3.927815E+00   3.860701E+00   3.788735E+00   3.723330E+00   3.643862E+00   3.575216E+00   3.507324E+00   3.460305E+00   3.412778E+00   3.347898E+00   3.263244E+00   3.164564E+00   3.053371E+00   2.956746E+00   2.865465E+00   2.792032E+00   2.734012E+00   2.716954E+00   2.735434E+00   2.798682E+00   2.882380E+00   2.998339E+00   3.128515E+00   3.293505E+00   3.480787E+00   3.681525E+00   3.901701E+00   4.138275E+00   4.358542E+00   4.559315E+00   4.716208E+00   4.837187E+00   4.928896E+00   4.954519E+00   4.886553E+00   4.749145E+00   4.528987E+00   4.226940E+00   3.908221E+00   3.604213E+00   3.351045E+00   3.144679E+00   2.970932E+00   2.837213E+00   2.728468E+00   2.642985E+00   2.594036E+00   2.572827E+00   2.600043E+00   2.667301E+00   2.776431E+00   2.913687E+00   3.051832E+00   3.166253E+00   3.228272E+00   3.264103E+00   3.281451E+00   3.301402E+00   3.351245E+00   3.445963E+00   3.576900E+00   3.732689E+00   3.894758E+00   4.003044E+00   4.043002E+00   3.995748E+00   3.873000E+00   3.711161E+00   3.517941E+00   3.313260E+00   3.125190E+00   2.946170E+00   2.803041E+00   2.694140E+00   2.638575E+00   2.633801E+00   2.659153E+00   2.716342E+00   2.789506E+00   2.847149E+00   2.889337E+00   2.890085E+00   2.852552E+00   2.789696E+00   2.706519E+00   2.613693E+00   2.526608E+00   2.465407E+00   2.452414E+00   2.497983E+00   2.601881E+00   2.760994E+00   2.956038E+00   3.156473E+00   3.335346E+00   3.460934E+00   3.530763E+00   3.550721E+00   3.522472E+00   3.436944E+00   3.299736E+00   3.144106E+00   2.984659E+00   2.847938E+00   2.744001E+00   2.675675E+00   2.636382E+00   2.606435E+00   2.595100E+00   2.592565E+00   2.609655E+00   2.639688E+00   2.691609E+00   2.751027E+00   2.813214E+00   2.870860E+00   2.921514E+00   2.981143E+00   3.060724E+00   3.169565E+00   3.313625E+00   3.483159E+00   3.679613E+00   3.872123E+00   4.036600E+00   4.143150E+00   4.185472E+00   4.176244E+00   4.163357E+00   4.129787E+00   4.091885E+00   4.017665E+00   3.917268E+00   3.791167E+00   3.648008E+00   3.509001E+00   3.404705E+00   3.358031E+00   3.388690E+00   3.479614E+00   3.632124E+00   3.853964E+00   4.107703E+00   4.400750E+00   4.727006E+00   5.081522E+00   5.440118E+00   5.796696E+00   6.092104E+00   6.274747E+00   6.310301E+00   6.158072E+00   5.832270E+00   5.429871E+00   4.998638E+00   4.558860E+00   4.133363E+00   3.732047E+00   3.385543E+00   3.080893E+00   2.821397E+00   2.606568E+00   2.437263E+00   2.311373E+00   2.234285E+00   2.206444E+00   2.235710E+00   2.315040E+00   2.455967E+00   2.644097E+00   2.873421E+00   3.127973E+00   3.389133E+00   3.644352E+00   3.861067E+00   4.029850E+00   4.142600E+00   4.209001E+00   4.220027E+00   4.215813E+00   4.167767E+00   4.131019E+00   4.083694E+00   4.053333E+00   4.027328E+00   4.034282E+00   4.065771E+00   4.130471E+00   4.237827E+00   4.388684E+00   4.553223E+00   4.687894E+00   4.764539E+00   4.776475E+00   4.729425E+00   4.654725E+00   4.559125E+00   4.432526E+00   4.291501E+00   4.145075E+00
   3.979284E+00   3.956180E+00   3.916227E+00   3.846317E+00   3.787438E+00   3.702482E+00   3.640623E+00   3.585479E+00   3.538820E+00   3.470121E+00   3.374929E+00   3.261064E+00   3.137433E+00   3.033033E+00   2.943475E+00   2.872158E+00   2.820200E+00   2.791456E+00   2.820752E+00   2.884231E+00   2.985170E+00   3.111147E+00   3.237733E+00   3.392164E+00   3.557413E+00   3.740562E+00   3.941784E+00   4.130978E+00   4.331180E+00   4.529014E+00   4.722164E+00   4.876149E+00   4.993807E+00   5.067935E+00   5.074431E+00   4.980174E+00   4.778865E+00   4.475458E+00   4.123828E+00   3.773570E+00   3.476218E+00   3.219334E+00   3.016314E+00   2.855234E+00   2.731708E+00   2.650859E+00   2.602392E+00   2.606607E+00   2.659115E+00   2.753913E+00   2.901774E+00   3.083492E+00   3.264586E+00   3.425259E+00   3.535573E+00   3.600624E+00   3.640719E+00   3.670731E+00   3.742064E+00   3.855243E+00   4.003496E+00   4.174074E+00   4.336294E+00   4.434977E+00   4.438047E+00   4.351605E+00   4.188947E+00   3.979986E+00   3.749563E+00   3.520283E+00   3.295550E+00   3.104362E+00   2.943654E+00   2.832518E+00   2.759707E+00   2.730139E+00   2.735120E+00   2.771630E+00   2.823622E+00   2.866490E+00   2.880019E+00   2.862356E+00   2.808078E+00   2.741426E+00   2.650879E+00   2.550451E+00   2.459764E+00   2.393735E+00   2.382032E+00   2.432300E+00   2.542669E+00   2.699078E+00   2.900625E+00   3.110460E+00   3.316370E+00   3.494315E+00   3.620909E+00   3.674221E+00   3.670725E+00   3.599693E+00   3.484051E+00   3.344123E+00   3.200454E+00   3.072207E+00   2.982257E+00   2.926341E+00   2.896126E+00   2.879789E+00   2.874327E+00   2.873576E+00   2.885775E+00   2.914748E+00   2.965689E+00   3.022850E+00   3.066628E+00   3.108698E+00   3.122414E+00   3.139229E+00   3.170744E+00   3.221247E+00   3.308647E+00   3.421073E+00   3.553482E+00   3.683195E+00   3.774568E+00   3.814270E+00   3.802564E+00   3.771399E+00   3.743997E+00   3.736663E+00   3.735415E+00   3.735949E+00   3.699002E+00   3.619972E+00   3.520990E+00   3.397948E+00   3.291490E+00   3.229330E+00   3.249381E+00   3.343201E+00   3.512455E+00   3.753393E+00   4.030125E+00   4.332428E+00   4.645381E+00   4.978205E+00   5.325314E+00   5.669923E+00   5.977842E+00   6.189735E+00   6.239490E+00   6.110113E+00   5.834522E+00   5.472550E+00   5.047263E+00   4.617403E+00   4.185348E+00   3.798165E+00   3.451402E+00   3.153364E+00   2.899593E+00   2.673157E+00   2.492378E+00   2.357221E+00   2.272650E+00   2.236480E+00   2.258112E+00   2.327252E+00   2.455568E+00   2.632096E+00   2.854087E+00   3.111138E+00   3.385968E+00   3.643059E+00   3.848673E+00   3.999780E+00   4.092015E+00   4.131431E+00   4.142386E+00   4.115945E+00   4.074324E+00   4.032245E+00   3.995167E+00   3.960098E+00   3.949733E+00   3.955280E+00   4.000822E+00   4.076308E+00   4.203256E+00   4.372546E+00   4.537467E+00   4.675923E+00   4.759408E+00   4.768449E+00   4.728245E+00   4.656017E+00   4.566921E+00   4.446586E+00   4.311312E+00   4.159028E+00
   4.043965E+00   4.084290E+00   4.071606E+00   4.037499E+00   3.961153E+00   3.885345E+00   3.813880E+00   3.759761E+00   3.693305E+00   3.604415E+00   3.480410E+00   3.350551E+00   3.221767E+00   3.114583E+00   3.028170E+00   2.969035E+00   2.914201E+00   2.901534E+00   2.924981E+00   2.989729E+00   3.088855E+00   3.215117E+00   3.342744E+00   3.479321E+00   3.627885E+00   3.797994E+00   3.966280E+00   4.148199E+00   4.342248E+00   4.552142E+00   4.756602E+00   4.954881E+00   5.105295E+00   5.217620E+00   5.243845E+00   5.180109E+00   5.009080E+00   4.736326E+00   4.380610E+00   4.003870E+00   3.651826E+00   3.363849E+00   3.126840E+00   2.945243E+00   2.819814E+00   2.736054E+00   2.707304E+00   2.717074E+00   2.787556E+00   2.909296E+00   3.080712E+00   3.272614E+00   3.458415E+00   3.628660E+00   3.748286E+00   3.826517E+00   3.874748E+00   3.941410E+00   4.036490E+00   4.176049E+00   4.367113E+00   4.566494E+00   4.749513E+00   4.856516E+00   4.848011E+00   4.724377E+00   4.530518E+00   4.301552E+00   4.057035E+00   3.805639E+00   3.577786E+00   3.378481E+00   3.201533E+00   3.065342E+00   2.967663E+00   2.905359E+00   2.885655E+00   2.880183E+00   2.895772E+00   2.904412E+00   2.899502E+00   2.858671E+00   2.798153E+00   2.723751E+00   2.642588E+00   2.554862E+00   2.475516E+00   2.430478E+00   2.431279E+00   2.496893E+00   2.613578E+00   2.782038E+00   2.975986E+00   3.193490E+00   3.412373E+00   3.608270E+00   3.763621E+00   3.838237E+00   3.843161E+00   3.784986E+00   3.672964E+00   3.547155E+00   3.416252E+00   3.299066E+00   3.212837E+00   3.165019E+00   3.149295E+00   3.144123E+00   3.148429E+00   3.160351E+00   3.179341E+00   3.207993E+00   3.260637E+00   3.311370E+00   3.340833E+00   3.346192E+00   3.324838E+00   3.288115E+00   3.258525E+00   3.245171E+00   3.259920E+00   3.298109E+00   3.354473E+00   3.410139E+00   3.442316E+00   3.444211E+00   3.415099E+00   3.382119E+00   3.374891E+00   3.390034E+00   3.444654E+00   3.502533E+00   3.535314E+00   3.518808E+00   3.461667E+00   3.369285E+00   3.284102E+00   3.227544E+00   3.242647E+00   3.322136E+00   3.490635E+00   3.741303E+00   4.033975E+00   4.338416E+00   4.636115E+00   4.931465E+00   5.239606E+00   5.556828E+00   5.846614E+00   6.059523E+00   6.143194E+00   6.062949E+00   5.840185E+00   5.501860E+00   5.102697E+00   4.675519E+00   4.269792E+00   3.886155E+00   3.560217E+00   3.278141E+00   3.028437E+00   2.793779E+00   2.601043E+00   2.452522E+00   2.352216E+00   2.309216E+00   2.314204E+00   2.382634E+00   2.499823E+00   2.669113E+00   2.872058E+00   3.122843E+00   3.385202E+00   3.627487E+00   3.814927E+00   3.943888E+00   4.011756E+00   4.035490E+00   4.031584E+00   3.989953E+00   3.960591E+00   3.940799E+00   3.914737E+00   3.893149E+00   3.875664E+00   3.878377E+00   3.914027E+00   3.979081E+00   4.088598E+00   4.229496E+00   4.382060E+00   4.501194E+00   4.581774E+00   4.594344E+00   4.575973E+00   4.527669E+00   4.442821E+00   4.360834E+00   4.255118E+00   4.139254E+00
   4.118206E+00   4.210864E+00   4.262814E+00   4.250170E+00   4.208669E+00   4.125315E+00   4.065346E+00   3.997553E+00   3.909425E+00   3.779809E+00   3.618986E+00   3.459253E+00   3.315673E+00   3.197071E+00   3.116116E+00   3.068641E+00   3.036668E+00   3.024962E+00   3.038114E+00   3.091703E+00   3.171206E+00   3.276926E+00   3.404262E+00   3.532637E+00   3.673008E+00   3.817085E+00   3.980616E+00   4.160094E+00   4.383901E+00   4.596740E+00   4.814078E+00   5.006085E+00   5.181599E+00   5.289338E+00   5.335845E+00   5.285075E+00   5.156012E+00   4.924903E+00   4.611478E+00   4.239309E+00   3.877561E+00   3.554359E+00   3.295253E+00   3.101329E+00   2.960010E+00   2.877460E+00   2.847178E+00   2.876952E+00   2.958003E+00   3.078599E+00   3.238549E+00   3.414056E+00   3.595771E+00   3.736723E+00   3.843053E+00   3.910283E+00   3.973692E+00   4.058393E+00   4.187880E+00   4.376716E+00   4.612169E+00   4.859481E+00   5.051771E+00   5.165110E+00   5.162319E+00   5.044450E+00   4.843084E+00   4.610418E+00   4.366010E+00   4.127589E+00   3.916661E+00   3.719926E+00   3.534637E+00   3.381674E+00   3.237961E+00   3.137676E+00   3.067621E+00   3.019622E+00   2.986077E+00   2.955223E+00   2.920441E+00   2.866894E+00   2.804303E+00   2.741919E+00   2.669210E+00   2.616570E+00   2.575944E+00   2.565848E+00   2.601267E+00   2.681879E+00   2.828996E+00   3.010861E+00   3.223282E+00   3.450321E+00   3.653898E+00   3.813355E+00   3.943513E+00   4.020891E+00   4.009520E+00   3.952765E+00   3.842052E+00   3.726775E+00   3.610523E+00   3.506784E+00   3.426221E+00   3.373787E+00   3.343272E+00   3.344414E+00   3.354901E+00   3.380484E+00   3.413993E+00   3.450083E+00   3.492918E+00   3.513680E+00   3.511734E+00   3.486594E+00   3.433291E+00   3.358831E+00   3.270700E+00   3.190278E+00   3.133033E+00   3.100601E+00   3.091586E+00   3.086507E+00   3.077584E+00   3.064547E+00   3.046290E+00   3.046551E+00   3.069791E+00   3.128923E+00   3.219613E+00   3.329514E+00   3.412963E+00   3.460375E+00   3.453614E+00   3.415376E+00   3.354165E+00   3.319249E+00   3.333402E+00   3.424616E+00   3.583007E+00   3.817693E+00   4.090609E+00   4.375774E+00   4.642297E+00   4.914654E+00   5.188706E+00   5.481432E+00   5.738913E+00   5.936626E+00   6.020772E+00   5.969226E+00   5.783341E+00   5.506794E+00   5.158545E+00   4.774147E+00   4.398918E+00   4.037324E+00   3.707999E+00   3.425410E+00   3.169420E+00   2.936412E+00   2.729715E+00   2.576886E+00   2.472938E+00   2.423147E+00   2.430917E+00   2.485585E+00   2.602027E+00   2.752203E+00   2.949047E+00   3.173103E+00   3.409278E+00   3.627057E+00   3.804215E+00   3.901267E+00   3.955446E+00   3.968719E+00   3.953370E+00   3.917746E+00   3.893043E+00   3.872758E+00   3.862290E+00   3.836275E+00   3.818125E+00   3.802633E+00   3.816068E+00   3.857629E+00   3.934260E+00   4.038095E+00   4.145530E+00   4.244219E+00   4.295662E+00   4.320956E+00   4.320983E+00   4.298378E+00   4.258448E+00   4.217299E+00   4.165476E+00   4.084849E+00