# LPF package for  MODFLOW-2005, generated by Flopy.
         0    -1E+30         0  
         0
         0
   1.000000E+00
         0
         0
INTERNAL               1 (200E15.6) -1 #hk layer 1                    
   3.962780E+00   3.935245E+00   3.904582E+00   3.862552E+00   3.833790E+00   3.813354E+00   3.801990E+00   3.789242E+00   3.787627E+00   3.761374E+00   3.731952E+00   3.688937E+00   3.641716E+00   3.585317E+00   3.527724E+00   3.488822E+00   3.471312E+00   3.475629E+00   3.487889E+00   3.514996E+00   3.555516E+00   3.610250E+00   3.676283E+00   3.769799E+00   3.856488E+00   3.942672E+00   4.024041E+00   4.102619E+00   4.173370E+00   4.228871E+00   4.263466E+00   4.278150E+00   4.262465E+00   4.208740E+00   4.144110E+00   4.061027E+00   3.983646E+00   3.902498E+00   3.837350E+00   3.780464E+00   3.734442E+00   3.705122E+00   3.677776E+00   3.641594E+00   3.612287E+00   3.596362E+00   3.598002E+00   3.596565E+00   3.597183E+00   3.587816E+00   3.566038E+00   3.538646E+00   3.502802E+00   3.461132E+00   3.425409E+00   3.380665E+00   3.348351E+00   3.330911E+00   3.342873E+00   3.385054E+00   3.438159E+00   3.508921E+00   3.589256E+00   3.667801E+00   3.725149E+00   3.774397E+00   3.803954E+00   3.824164E+00   3.826088E+00   3.806120E+00   3.768672E+00   3.724267E+00   3.683883E+00   3.658823E+00   3.654717E+00   3.647150E+00   3.655412E+00   3.651708E+00   3.644510E+00   3.635084E+00   3.635683E+00   3.623664E+00   3.611326E+00   3.599378E+00   3.582987E+00   3.572138E+00   3.569918E+00   3.582245E+00   3.598219E+00   3.649027E+00   3.714916E+00   3.790936E+00   3.863322E+00   3.918370E+00   3.938101E+00   3.934319E+00   3.911819E+00   3.868181E+00   3.820204E+00   3.755244E+00   3.688813E+00   3.614376E+00   3.538839E+00   3.483552E+00   3.436830E+00   3.398643E+00   3.375475E+00   3.354383E+00   3.352445E+00   3.340936E+00   3.328678E+00   3.309000E+00   3.299423E+00   3.305109E+00   3.313954E+00   3.344110E+00   3.403520E+00   3.482033E+00   3.577555E+00   3.682035E+00   3.773284E+00   3.873540E+00   3.963180E+00   4.047501E+00   4.127213E+00   4.192712E+00   4.268302E+00   4.325251E+00   4.356846E+00   4.373109E+00   4.360269E+00   4.335603E+00   4.308382E+00   4.267586E+00   4.212959E+00   4.169038E+00   4.111032E+00   4.072307E+00   4.050418E+00   4.051558E+00   4.074263E+00   4.106827E+00   4.158813E+00   4.213337E+00   4.279543E+00   4.349139E+00   4.431436E+00   4.525245E+00   4.590794E+00   4.617037E+00   4.595963E+00   4.545472E+00   4.458013E+00   4.371080E+00   4.269392E+00   4.164142E+00   4.064159E+00   3.962243E+00   3.866641E+00   3.760859E+00   3.673672E+00   3.573173E+00   3.493919E+00   3.440088E+00   3.401934E+00   3.385139E+00   3.389159E+00   3.415213E+00   3.461384E+00   3.544874E+00   3.647705E+00   3.756781E+00   3.870518E+00   3.969513E+00   4.043380E+00   4.094630E+00   4.129224E+00   4.160630E+00   4.187137E+00   4.202185E+00   4.222001E+00   4.238085E+00   4.251471E+00   4.250166E+00   4.238683E+00   4.201989E+00   4.152920E+00   4.089801E+00   4.031971E+00   3.993578E+00   3.975545E+00   3.977405E+00   3.985339E+00   4.000377E+00   4.005214E+00   4.010262E+00   4.009937E+00   3.991171E+00   3.983167E+00   3.979272E+00
   3.931074E+00   3.887697E+00   3.829738E+00   3.762525E+00   3.694437E+00   3.655386E+00   3.623371E+00   3.599591E+00   3.585332E+00   3.568940E+00   3.518095E+00   3.458883E+00   3.366247E+00   3.277646E+00   3.189079E+00   3.124397E+00   3.088179E+00   3.089526E+00   3.108951E+00   3.146019E+00   3.207014E+00   3.294892E+00   3.408954E+00   3.546251E+00   3.701385E+00   3.869486E+00   4.044277E+00   4.212968E+00   4.363932E+00   4.476859E+00   4.542787E+00   4.578558E+00   4.539489E+00   4.450032E+00   4.313900E+00   4.167001E+00   4.016970E+00   3.866528E+00   3.721338E+00   3.617357E+00   3.532228E+00   3.477754E+00   3.426826E+00   3.378373E+00   3.327153E+00   3.299644E+00   3.291658E+00   3.285788E+00   3.283119E+00   3.269749E+00   3.242238E+00   3.198410E+00   3.152255E+00   3.091941E+00   3.019549E+00   2.953368E+00   2.905095E+00   2.881733E+00   2.897259E+00   2.956270E+00   3.048731E+00   3.177906E+00   3.316932E+00   3.439862E+00   3.541357E+00   3.620648E+00   3.660169E+00   3.671195E+00   3.654762E+00   3.607943E+00   3.536920E+00   3.463114E+00   3.394863E+00   3.346603E+00   3.318219E+00   3.305683E+00   3.306695E+00   3.317172E+00   3.330636E+00   3.344528E+00   3.346032E+00   3.339522E+00   3.320148E+00   3.291425E+00   3.255432E+00   3.224014E+00   3.214200E+00   3.223199E+00   3.256913E+00   3.326749E+00   3.449604E+00   3.571669E+00   3.708161E+00   3.808258E+00   3.860983E+00   3.866003E+00   3.817582E+00   3.748252E+00   3.658989E+00   3.553228E+00   3.436222E+00   3.309399E+00   3.182893E+00   3.082151E+00   3.002861E+00   2.939682E+00   2.899158E+00   2.875731E+00   2.858019E+00   2.842807E+00   2.823321E+00   2.810726E+00   2.814739E+00   2.824244E+00   2.855998E+00   2.913492E+00   2.997217E+00   3.108642E+00   3.252008E+00   3.408503E+00   3.571280E+00   3.748861E+00   3.920310E+00   4.087284E+00   4.236660E+00   4.382123E+00   4.511988E+00   4.608392E+00   4.648948E+00   4.659376E+00   4.639377E+00   4.593843E+00   4.519274E+00   4.415768E+00   4.309636E+00   4.212561E+00   4.140141E+00   4.086740E+00   4.073814E+00   4.088670E+00   4.139040E+00   4.222889E+00   4.297558E+00   4.407178E+00   4.526178E+00   4.681365E+00   4.855070E+00   5.038408E+00   5.183143E+00   5.230919E+00   5.195903E+00   5.073086E+00   4.905588E+00   4.710775E+00   4.497698E+00   4.284930E+00   4.077463E+00   3.883770E+00   3.689682E+00   3.513327E+00   3.339290E+00   3.195101E+00   3.067216E+00   2.986307E+00   2.935836E+00   2.910966E+00   2.919177E+00   2.971695E+00   3.068338E+00   3.207980E+00   3.373944E+00   3.558134E+00   3.746419E+00   3.909525E+00   4.045444E+00   4.142043E+00   4.213009E+00   4.270385E+00   4.312731E+00   4.347572E+00   4.378824E+00   4.414170E+00   4.424476E+00   4.419687E+00   4.381560E+00   4.328279E+00   4.247426E+00   4.152779E+00   4.068242E+00   4.004846E+00   4.003999E+00   4.018926E+00   4.044962E+00   4.059699E+00   4.058105E+00   4.054872E+00   4.036911E+00   4.011773E+00   3.986704E+00   3.982310E+00
   3.911426E+00   3.831472E+00   3.749055E+00   3.665237E+00   3.598287E+00   3.527339E+00   3.481874E+00   3.447968E+00   3.426164E+00   3.389664E+00   3.342154E+00   3.261488E+00   3.174574E+00   3.070551E+00   2.974644E+00   2.897329E+00   2.853347E+00   2.846040E+00   2.866279E+00   2.912560E+00   2.976550E+00   3.079245E+00   3.215836E+00   3.387622E+00   3.577060E+00   3.793393E+00   4.038000E+00   4.276613E+00   4.495462E+00   4.657504E+00   4.768363E+00   4.801499E+00   4.762890E+00   4.652755E+00   4.500644E+00   4.293044E+00   4.082422E+00   3.863292E+00   3.680127E+00   3.528765E+00   3.416159E+00   3.325467E+00   3.259303E+00   3.194698E+00   3.127134E+00   3.063899E+00   3.039290E+00   3.014254E+00   3.012313E+00   3.011288E+00   3.004755E+00   2.979583E+00   2.953498E+00   2.898196E+00   2.835118E+00   2.773056E+00   2.718260E+00   2.692302E+00   2.710168E+00   2.779588E+00   2.894108E+00   3.039001E+00   3.197340E+00   3.348184E+00   3.465609E+00   3.537018E+00   3.565881E+00   3.555120E+00   3.505651E+00   3.429853E+00   3.323845E+00   3.222681E+00   3.129738E+00   3.062963E+00   3.020983E+00   3.000681E+00   3.008557E+00   3.033320E+00   3.074417E+00   3.110901E+00   3.130845E+00   3.131242E+00   3.116432E+00   3.073985E+00   3.034180E+00   2.993204E+00   2.964903E+00   2.957725E+00   2.984574E+00   3.066838E+00   3.196455E+00   3.362300E+00   3.524003E+00   3.668020E+00   3.738943E+00   3.748587E+00   3.707873E+00   3.629840E+00   3.533853E+00   3.403526E+00   3.255949E+00   3.102004E+00   2.953268E+00   2.817488E+00   2.714645E+00   2.634072E+00   2.576970E+00   2.543936E+00   2.526171E+00   2.512582E+00   2.502678E+00   2.501484E+00   2.520824E+00   2.552752E+00   2.595625E+00   2.672235E+00   2.769406E+00   2.892776E+00   3.056324E+00   3.237266E+00   3.430165E+00   3.653201E+00   3.878420E+00   4.098230E+00   4.299859E+00   4.472732E+00   4.633613E+00   4.738984E+00   4.800905E+00   4.799876E+00   4.755199E+00   4.666965E+00   4.541809E+00   4.403287E+00   4.262618E+00   4.145133E+00   4.047172E+00   4.002253E+00   3.997882E+00   4.043077E+00   4.128275E+00   4.227214E+00   4.359714E+00   4.515384E+00   4.711265E+00   4.935124E+00   5.205423E+00   5.455826E+00   5.643891E+00   5.717869E+00   5.675803E+00   5.513223E+00   5.266225E+00   4.981798E+00   4.677869E+00   4.378098E+00   4.084893E+00   3.801249E+00   3.529207E+00   3.281431E+00   3.065701E+00   2.875524E+00   2.743253E+00   2.652156E+00   2.600321E+00   2.586753E+00   2.616786E+00   2.692733E+00   2.816005E+00   2.983723E+00   3.191435E+00   3.408019E+00   3.631545E+00   3.835612E+00   4.015763E+00   4.145515E+00   4.243096E+00   4.308861E+00   4.360866E+00   4.399407E+00   4.422372E+00   4.429834E+00   4.436728E+00   4.414965E+00   4.373517E+00   4.305901E+00   4.231252E+00   4.167035E+00   4.107374E+00   4.083094E+00   4.095521E+00   4.140536E+00   4.191372E+00   4.206383E+00   4.196364E+00   4.158187E+00   4.116618E+00   4.076065E+00   4.039277E+00   4.009629E+00
   3.896373E+00   3.808034E+00   3.706601E+00   3.617035E+00   3.543935E+00   3.483189E+00   3.426176E+00   3.386068E+00   3.348310E+00   3.304779E+00   3.237544E+00   3.162025E+00   3.060436E+00   2.958708E+00   2.861164E+00   2.788314E+00   2.738177E+00   2.722272E+00   2.739045E+00   2.785730E+00   2.847165E+00   2.944376E+00   3.081375E+00   3.263969E+00   3.476492E+00   3.718313E+00   3.983711E+00   4.265008E+00   4.516839E+00   4.716689E+00   4.850748E+00   4.916113E+00   4.878126E+00   4.797204E+00   4.627515E+00   4.407933E+00   4.159678E+00   3.904556E+00   3.671384E+00   3.492300E+00   3.347790E+00   3.229059E+00   3.124730E+00   3.028466E+00   2.943909E+00   2.873233E+00   2.827345E+00   2.791650E+00   2.786862E+00   2.800398E+00   2.825273E+00   2.848288E+00   2.864586E+00   2.863841E+00   2.830585E+00   2.785232E+00   2.742016E+00   2.726493E+00   2.749254E+00   2.821935E+00   2.941569E+00   3.095931E+00   3.256537E+00   3.401748E+00   3.504800E+00   3.551369E+00   3.541145E+00   3.483213E+00   3.396940E+00   3.283619E+00   3.157839E+00   3.024767E+00   2.914343E+00   2.824806E+00   2.781130E+00   2.771922E+00   2.795087E+00   2.835533E+00   2.895293E+00   2.947119E+00   2.991800E+00   3.007823E+00   2.995589E+00   2.954906E+00   2.893994E+00   2.836836E+00   2.786653E+00   2.764298E+00   2.783943E+00   2.851933E+00   2.984925E+00   3.145562E+00   3.331659E+00   3.492111E+00   3.600973E+00   3.640547E+00   3.616578E+00   3.548708E+00   3.453764E+00   3.323720E+00   3.169217E+00   2.995914E+00   2.833007E+00   2.695047E+00   2.574303E+00   2.488255E+00   2.434395E+00   2.393997E+00   2.381415E+00   2.367407E+00   2.371030E+00   2.385606E+00   2.416344E+00   2.466606E+00   2.530417E+00   2.616701E+00   2.714873E+00   2.836012E+00   2.982363E+00   3.155441E+00   3.350679E+00   3.571804E+00   3.813888E+00   4.059680E+00   4.281233E+00   4.464740E+00   4.609354E+00   4.704546E+00   4.742033E+00   4.729402E+00   4.662622E+00   4.552021E+00   4.400464E+00   4.236509E+00   4.082751E+00   3.945014E+00   3.856826E+00   3.807666E+00   3.816646E+00   3.887986E+00   4.005485E+00   4.150321E+00   4.329518E+00   4.553946E+00   4.811800E+00   5.114996E+00   5.422830E+00   5.737982E+00   5.979564E+00   6.085623E+00   6.044723E+00   5.856608E+00   5.551922E+00   5.189227E+00   4.810923E+00   4.452518E+00   4.093158E+00   3.749034E+00   3.425446E+00   3.138837E+00   2.889644E+00   2.700885E+00   2.550981E+00   2.445399E+00   2.391762E+00   2.380482E+00   2.412951E+00   2.497691E+00   2.634137E+00   2.831220E+00   3.049912E+00   3.291808E+00   3.531728E+00   3.766254E+00   3.957758E+00   4.112766E+00   4.208947E+00   4.281150E+00   4.318702E+00   4.338822E+00   4.336766E+00   4.334237E+00   4.302293E+00   4.280159E+00   4.230731E+00   4.188763E+00   4.154593E+00   4.129162E+00   4.138288E+00   4.184845E+00   4.258564E+00   4.340742E+00   4.393916E+00   4.415594E+00   4.386101E+00   4.323387E+00   4.237111E+00   4.156129E+00   4.092048E+00   4.036577E+00
   3.901762E+00   3.809830E+00   3.713051E+00   3.630213E+00   3.558510E+00   3.492959E+00   3.438061E+00   3.386618E+00   3.350114E+00   3.288845E+00   3.216548E+00   3.121803E+00   3.023735E+00   2.922996E+00   2.831668E+00   2.753521E+00   2.702113E+00   2.679144E+00   2.700191E+00   2.742950E+00   2.818014E+00   2.926866E+00   3.056551E+00   3.230528E+00   3.438585E+00   3.675656E+00   3.932770E+00   4.187822E+00   4.435506E+00   4.642079E+00   4.792480E+00   4.872602E+00   4.908964E+00   4.864810E+00   4.746847E+00   4.554194E+00   4.324016E+00   4.030325E+00   3.759177E+00   3.508804E+00   3.314183E+00   3.156780E+00   3.022877E+00   2.903992E+00   2.799987E+00   2.721757E+00   2.671605E+00   2.639536E+00   2.637196E+00   2.670884E+00   2.739312E+00   2.823568E+00   2.910700E+00   2.961217E+00   2.976777E+00   2.960894E+00   2.946041E+00   2.945363E+00   2.983387E+00   3.057997E+00   3.184773E+00   3.341688E+00   3.498960E+00   3.627305E+00   3.703106E+00   3.705261E+00   3.643221E+00   3.534738E+00   3.393847E+00   3.237372E+00   3.073728E+00   2.923684E+00   2.787916E+00   2.690774E+00   2.641207E+00   2.635703E+00   2.664720E+00   2.728765E+00   2.799435E+00   2.865622E+00   2.917587E+00   2.930788E+00   2.905682E+00   2.851296E+00   2.781467E+00   2.704785E+00   2.636575E+00   2.599228E+00   2.599218E+00   2.653901E+00   2.769855E+00   2.935862E+00   3.119355E+00   3.298816E+00   3.442277E+00   3.518315E+00   3.534254E+00   3.508634E+00   3.444732E+00   3.340778E+00   3.192770E+00   3.013143E+00   2.849590E+00   2.706916E+00   2.596505E+00   2.519169E+00   2.464757E+00   2.428803E+00   2.405153E+00   2.407395E+00   2.422769E+00   2.449141E+00   2.487287E+00   2.553894E+00   2.622436E+00   2.698813E+00   2.790377E+00   2.883802E+00   3.001144E+00   3.141749E+00   3.320583E+00   3.524796E+00   3.754378E+00   3.992508E+00   4.188768E+00   4.356412E+00   4.462156E+00   4.500441E+00   4.506281E+00   4.485634E+00   4.419612E+00   4.310320E+00   4.155187E+00   4.002224E+00   3.840967E+00   3.702320E+00   3.601527E+00   3.566210E+00   3.585351E+00   3.675001E+00   3.811982E+00   4.004586E+00   4.233469E+00   4.506179E+00   4.817618E+00   5.152625E+00   5.490479E+00   5.838117E+00   6.114293E+00   6.269790E+00   6.252234E+00   6.082821E+00   5.759993E+00   5.356194E+00   4.928621E+00   4.505353E+00   4.099609E+00   3.720886E+00   3.369084E+00   3.066765E+00   2.811493E+00   2.601423E+00   2.445816E+00   2.332637E+00   2.270933E+00   2.255127E+00   2.288460E+00   2.376395E+00   2.523469E+00   2.715453E+00   2.944844E+00   3.190748E+00   3.443086E+00   3.688722E+00   3.913014E+00   4.079518E+00   4.192266E+00   4.246078E+00   4.278787E+00   4.267711E+00   4.247140E+00   4.205870E+00   4.171854E+00   4.134412E+00   4.107259E+00   4.080568E+00   4.087872E+00   4.122198E+00   4.193117E+00   4.300647E+00   4.423433E+00   4.541016E+00   4.622931E+00   4.633850E+00   4.597937E+00   4.522614E+00   4.414603E+00   4.300254E+00   4.189182E+00   4.089348E+00
   3.927718E+00   3.860509E+00   3.788460E+00   3.722986E+00   3.643470E+00   3.574802E+00   3.506905E+00   3.459900E+00   3.412403E+00   3.347562E+00   3.262950E+00   3.164305E+00   3.053138E+00   2.956522E+00   2.865232E+00   2.791782E+00   2.733738E+00   2.716659E+00   2.735124E+00   2.798363E+00   2.882063E+00   2.998041E+00   3.128250E+00   3.293281E+00   3.480610E+00   3.681397E+00   3.901623E+00   4.138251E+00   4.358574E+00   4.559407E+00   4.716349E+00   4.837375E+00   4.929115E+00   4.954758E+00   4.886791E+00   4.749374E+00   4.529198E+00   4.227124E+00   3.908379E+00   3.604342E+00   3.351150E+00   3.144766E+00   2.971010E+00   2.837292E+00   2.728562E+00   2.643105E+00   2.594196E+00   2.573033E+00   2.600302E+00   2.667621E+00   2.776815E+00   2.914133E+00   3.052324E+00   3.166772E+00   3.228789E+00   3.264591E+00   3.281883E+00   3.301765E+00   3.351524E+00   3.446154E+00   3.576994E+00   3.732691E+00   3.894665E+00   4.002872E+00   4.042765E+00   3.995469E+00   3.872704E+00   3.710863E+00   3.517654E+00   3.312996E+00   3.124953E+00   2.945955E+00   2.802841E+00   2.693948E+00   2.638381E+00   2.633593E+00   2.658921E+00   2.716082E+00   2.789214E+00   2.846837E+00   2.889020E+00   2.889786E+00   2.852287E+00   2.789479E+00   2.706355E+00   2.613580E+00   2.526537E+00   2.465373E+00   2.452408E+00   2.497997E+00   2.601905E+00   2.761020E+00   2.956053E+00   3.156468E+00   3.335317E+00   3.460882E+00   3.530695E+00   3.550650E+00   3.522408E+00   3.436898E+00   3.299716E+00   3.144116E+00   2.984701E+00   2.848008E+00   2.744102E+00   2.675805E+00   2.636543E+00   2.606630E+00   2.595338E+00   2.592852E+00   2.610000E+00   2.640093E+00   2.692073E+00   2.751543E+00   2.813774E+00   2.871449E+00   2.922117E+00   2.981754E+00   3.061337E+00   3.170187E+00   3.314261E+00   3.483821E+00   3.680310E+00   3.872863E+00   4.037385E+00   4.143977E+00   4.186322E+00   4.177108E+00   4.164219E+00   4.130641E+00   4.092720E+00   4.018467E+00   3.918024E+00   3.791864E+00   3.648648E+00   3.509591E+00   3.405263E+00   3.358574E+00   3.389238E+00   3.480180E+00   3.632725E+00   3.854614E+00   4.108418E+00   4.401537E+00   4.727877E+00   5.082487E+00   5.441176E+00   5.797840E+00   6.093323E+00   6.276001E+00   6.311551E+00   6.159269E+00   5.833378E+00   5.430860E+00   4.999510E+00   4.559610E+00   4.134007E+00   3.732589E+00   3.386007E+00   3.081296E+00   2.821753E+00   2.606884E+00   2.437548E+00   2.311631E+00   2.234521E+00   2.206656E+00   2.235901E+00   2.315197E+00   2.456086E+00   2.644167E+00   2.873433E+00   3.127921E+00   3.389017E+00   3.644168E+00   3.860818E+00   4.029536E+00   4.142224E+00   4.208576E+00   4.219560E+00   4.215306E+00   4.167225E+00   4.130441E+00   4.083076E+00   4.052677E+00   4.026641E+00   4.033575E+00   4.065056E+00   4.129763E+00   4.237145E+00   4.388041E+00   4.552648E+00   4.687406E+00   4.764157E+00   4.776204E+00   4.729252E+00   4.654637E+00   4.559099E+00   4.432537E+00   4.291523E+00   4.145092E+00
   3.979189E+00   3.955993E+00   3.915962E+00   3.845990E+00   3.787071E+00   3.702097E+00   3.640240E+00   3.585116E+00   3.538488E+00   3.469831E+00   3.374677E+00   3.260844E+00   3.137232E+00   3.032834E+00   2.943265E+00   2.871922E+00   2.819939E+00   2.791169E+00   2.820442E+00   2.883904E+00   2.984838E+00   3.110827E+00   3.237435E+00   3.391901E+00   3.557191E+00   3.740380E+00   3.941644E+00   4.130886E+00   4.331139E+00   4.529022E+00   4.722230E+00   4.876261E+00   4.993964E+00   5.068121E+00   5.074639E+00   4.980384E+00   4.779064E+00   4.475635E+00   4.123978E+00   3.773689E+00   3.476307E+00   3.219401E+00   3.016369E+00   2.855289E+00   2.731779E+00   2.650962E+00   2.602542E+00   2.606813E+00   2.659383E+00   2.754251E+00   2.902185E+00   3.083976E+00   3.265130E+00   3.425835E+00   3.536153E+00   3.601171E+00   3.641204E+00   3.671132E+00   3.742367E+00   3.855437E+00   4.003570E+00   4.174034E+00   4.336144E+00   4.434735E+00   4.437735E+00   4.351254E+00   4.188576E+00   3.979614E+00   3.749208E+00   3.519955E+00   3.295253E+00   3.104097E+00   2.943411E+00   2.832288E+00   2.759480E+00   2.729902E+00   2.734861E+00   2.771343E+00   2.823312E+00   2.866168E+00   2.879705E+00   2.862066E+00   2.807828E+00   2.741225E+00   2.650728E+00   2.550345E+00   2.459694E+00   2.393691E+00   2.382006E+00   2.432283E+00   2.542652E+00   2.699049E+00   2.900578E+00   3.110385E+00   3.316260E+00   3.494172E+00   3.620746E+00   3.674055E+00   3.670568E+00   3.599562E+00   3.483952E+00   3.344062E+00   3.200432E+00   3.072225E+00   2.982312E+00   2.926435E+00   2.896262E+00   2.879968E+00   2.874558E+00   2.873868E+00   2.886132E+00   2.915176E+00   2.966187E+00   3.023413E+00   3.067245E+00   3.109350E+00   3.123083E+00   3.139901E+00   3.171417E+00   3.221917E+00   3.309323E+00   3.421761E+00   3.554194E+00   3.683944E+00   3.775352E+00   3.815090E+00   3.803406E+00   3.772256E+00   3.744862E+00   3.737535E+00   3.736288E+00   3.736813E+00   3.699838E+00   3.620764E+00   3.521731E+00   3.398635E+00   3.292135E+00   3.229949E+00   3.249993E+00   3.343826E+00   3.513112E+00   3.754104E+00   4.030903E+00   4.333286E+00   4.646331E+00   4.979256E+00   5.326475E+00   5.671192E+00   5.979214E+00   6.191176E+00   6.240950E+00   6.111533E+00   5.835849E+00   5.473748E+00   5.048316E+00   4.618310E+00   4.186110E+00   3.798803E+00   3.451934E+00   3.153813E+00   2.899980E+00   2.673491E+00   2.492670E+00   2.357479E+00   2.272885E+00   2.236694E+00   2.258302E+00   2.327414E+00   2.455694E+00   2.632180E+00   2.854121E+00   3.111116E+00   3.385891E+00   3.642922E+00   3.848481E+00   3.999529E+00   4.091711E+00   4.131079E+00   4.141995E+00   4.115519E+00   4.073873E+00   4.031762E+00   3.994650E+00   3.959544E+00   3.949145E+00   3.954662E+00   4.000186E+00   4.075660E+00   4.202613E+00   4.371924E+00   4.536889E+00   4.675417E+00   4.758993E+00   4.768133E+00   4.728024E+00   4.655875E+00   4.566845E+00   4.446549E+00   4.311301E+00   4.159027E+00
   4.043880E+00   4.084124E+00   4.071370E+00   4.037211E+00   3.960831E+00   3.885011E+00   3.813555E+00   3.759459E+00   3.693033E+00   3.604181E+00   3.480208E+00   3.350377E+00   3.221603E+00   3.114416E+00   3.027982E+00   2.968815E+00   2.913945E+00   2.901243E+00   2.924655E+00   2.989382E+00   3.088495E+00   3.214758E+00   3.342396E+00   3.478994E+00   3.627583E+00   3.797725E+00   3.966048E+00   4.148008E+00   4.342099E+00   4.552049E+00   4.756565E+00   4.954907E+00   5.105372E+00   5.217754E+00   5.244012E+00   5.180295E+00   5.009260E+00   4.736490E+00   4.380745E+00   4.003971E+00   3.651897E+00   3.363897E+00   3.126874E+00   2.945279E+00   2.819869E+00   2.736141E+00   2.707441E+00   2.717272E+00   2.787821E+00   2.909637E+00   3.081133E+00   3.273111E+00   3.458971E+00   3.629252E+00   3.748876E+00   3.827070E+00   3.875236E+00   3.941807E+00   4.036781E+00   4.176211E+00   4.367140E+00   4.566390E+00   4.749283E+00   4.856179E+00   4.847596E+00   4.723917E+00   4.530038E+00   4.301077E+00   4.056579E+00   3.805214E+00   3.577403E+00   3.378136E+00   3.201223E+00   3.065054E+00   2.967386E+00   2.905082E+00   2.885364E+00   2.879877E+00   2.895457E+00   2.904100E+00   2.899210E+00   2.858413E+00   2.797941E+00   2.723585E+00   2.642467E+00   2.554777E+00   2.475457E+00   2.430435E+00   2.431241E+00   2.496850E+00   2.613522E+00   2.781960E+00   2.975875E+00   3.193339E+00   3.412175E+00   3.608034E+00   3.763358E+00   3.837963E+00   3.842901E+00   3.784748E+00   3.672760E+00   3.546991E+00   3.416132E+00   3.298986E+00   3.212799E+00   3.165025E+00   3.149347E+00   3.144231E+00   3.148597E+00   3.160594E+00   3.179664E+00   3.208403E+00   3.261134E+00   3.311944E+00   3.341472E+00   3.346875E+00   3.325543E+00   3.288821E+00   3.259220E+00   3.245846E+00   3.260578E+00   3.298760E+00   3.355127E+00   3.410807E+00   3.443008E+00   3.444928E+00   3.415840E+00   3.382882E+00   3.375677E+00   3.390843E+00   3.445487E+00   3.503385E+00   3.536164E+00   3.519633E+00   3.462455E+00   3.370025E+00   3.284797E+00   3.228207E+00   3.243295E+00   3.322792E+00   3.491318E+00   3.742037E+00   4.034777E+00   4.339293E+00   4.637084E+00   4.932534E+00   5.240783E+00   5.558120E+00   5.848016E+00   6.061011E+00   6.144722E+00   6.064456E+00   5.841616E+00   5.503166E+00   5.103854E+00   4.676512E+00   4.270632E+00   3.886849E+00   3.560790E+00   3.278617E+00   3.028836E+00   2.794112E+00   2.601328E+00   2.452767E+00   2.352432E+00   2.309409E+00   2.314377E+00   2.382782E+00   2.499943E+00   2.669199E+00   2.872104E+00   3.122849E+00   3.385167E+00   3.627410E+00   3.814807E+00   3.943724E+00   4.011551E+00   4.035247E+00   4.031311E+00   3.989651E+00   3.960266E+00   3.940442E+00   3.914345E+00   3.892718E+00   3.875195E+00   3.877872E+00   3.913491E+00   3.978526E+00   4.088034E+00   4.228936E+00   4.381528E+00   4.500710E+00   4.581362E+00   4.594014E+00   4.575724E+00   4.527493E+00   4.442704E+00   4.360761E+00   4.255075E+00   4.139236E+00
   4.118137E+00   4.210728E+00   4.262621E+00   4.249936E+00   4.208411E+00   4.125053E+00   4.065097E+00   3.997326E+00   3.909226E+00   3.779636E+00   3.618836E+00   3.459117E+00   3.315540E+00   3.196925E+00   3.115945E+00   3.068427E+00   3.036407E+00   3.024658E+00   3.037769E+00   3.091324E+00   3.170805E+00   3.276514E+00   3.403845E+00   3.532228E+00   3.672618E+00   3.816715E+00   3.980276E+00   4.159785E+00   4.383640E+00   4.596530E+00   4.813938E+00   5.006013E+00   5.181602E+00   5.289412E+00   5.335978E+00   5.285240E+00   5.156186E+00   4.925060E+00   4.611613E+00   4.239408E+00   3.877631E+00   3.554408E+00   3.295292E+00   3.101369E+00   2.960068E+00   2.877550E+00   2.847313E+00   2.877143E+00   2.958261E+00   3.078926E+00   3.238953E+00   3.414525E+00   3.596294E+00   3.737269E+00   3.843594E+00   3.910783E+00   3.974127E+00   4.058737E+00   4.188110E+00   4.376813E+00   4.612117E+00   4.859278E+00   5.051426E+00   5.164645E+00   5.161769E+00   5.043849E+00   4.842465E+00   4.609803E+00   4.365419E+00   4.127035E+00   3.916151E+00   3.719465E+00   3.534221E+00   3.381292E+00   3.237606E+00   3.137336E+00   3.067286E+00   3.019293E+00   2.985759E+00   2.954923E+00   2.920173E+00   2.866668E+00   2.804120E+00   2.741782E+00   2.669115E+00   2.616505E+00   2.575898E+00   2.565807E+00   2.601221E+00   2.681820E+00   2.828911E+00   3.010740E+00   3.223112E+00   3.450093E+00   3.653613E+00   3.813022E+00   3.943149E+00   4.020515E+00   4.009154E+00   3.952418E+00   3.841737E+00   3.726497E+00   3.610281E+00   3.506579E+00   3.426054E+00   3.373662E+00   3.343194E+00   3.344398E+00   3.354959E+00   3.380628E+00   3.414237E+00   3.450434E+00   3.493372E+00   3.514227E+00   3.512355E+00   3.487266E+00   3.433987E+00   3.359524E+00   3.271371E+00   3.190908E+00   3.133627E+00   3.101165E+00   3.092133E+00   3.087047E+00   3.078128E+00   3.065108E+00   3.046876E+00   3.047167E+00   3.070444E+00   3.129618E+00   3.220347E+00   3.330291E+00   3.413761E+00   3.461176E+00   3.454396E+00   3.416125E+00   3.354872E+00   3.319923E+00   3.334057E+00   3.425274E+00   3.583686E+00   3.818413E+00   4.091381E+00   4.376617E+00   4.643217E+00   4.915671E+00   5.189827E+00   5.482661E+00   5.740244E+00   5.938039E+00   6.022223E+00   5.970669E+00   5.784726E+00   5.508086E+00   5.159704E+00   4.775155E+00   4.399769E+00   4.038026E+00   3.708568E+00   3.425873E+00   3.169797E+00   2.936719E+00   2.729967E+00   2.577097E+00   2.473119E+00   2.423305E+00   2.431057E+00   2.485708E+00   2.602132E+00   2.752286E+00   2.949107E+00   3.173141E+00   3.409295E+00   3.627051E+00   3.804182E+00   3.901203E+00   3.955353E+00   3.968596E+00   3.953223E+00   3.917575E+00   3.892847E+00   3.872527E+00   3.862019E+00   3.835960E+00   3.817766E+00   3.802235E+00   3.815631E+00   3.857167E+00   3.933786E+00   4.037618E+00   4.145071E+00   4.243796E+00   4.295293E+00   4.320651E+00   4.320742E+00   4.298200E+00   4.258320E+00   4.217212E+00   4.165420E+00   4.084823E+00