# LPF package for  MODFLOW-2005, generated by Flopy.
         0    -1E+30         0  
         0
         0
   1.000000E+00
         0
         0
INTERNAL               1 (200E15.6) -1 #hk layer 1                    
   3.962837E+00   3.935354E+00   3.904741E+00   3.862760E+00   3.834043E+00   3.813640E+00   3.802302E+00   3.789569E+00   3.787957E+00   3.761689E+00   3.732243E+00   3.689198E+00   3.641942E+00   3.585507E+00   3.527886E+00   3.488964E+00   3.471443E+00   3.475755E+00   3.488014E+00   3.515120E+00   3.555639E+00   3.610374E+00   3.676409E+00   3.769927E+00   3.856618E+00   3.942806E+00   4.024177E+00   4.102752E+00   4.173493E+00   4.228985E+00   4.263567E+00   4.278236E+00   4.262536E+00   4.208799E+00   4.144159E+00   4.061066E+00   3.983672E+00   3.902507E+00   3.837339E+00   3.780436E+00   3.734401E+00   3.705072E+00   3.677722E+00   3.641542E+00   3.612241E+00   3.596325E+00   3.597976E+00   3.596550E+00   3.597175E+00   3.587807E+00   3.566022E+00   3.538620E+00   3.502760E+00   3.461075E+00   3.425333E+00   3.380580E+00   3.348257E+00   3.330817E+00   3.342778E+00   3.384961E+00   3.438069E+00   3.508835E+00   3.589177E+00   3.667735E+00   3.725105E+00   3.774379E+00   3.803966E+00   3.824206E+00   3.826157E+00   3.806216E+00   3.768785E+00   3.724394E+00   3.684017E+00   3.658958E+00   3.654853E+00   3.647287E+00   3.655548E+00   3.651849E+00   3.644653E+00   3.635227E+00   3.635819E+00   3.623787E+00   3.611431E+00   3.599463E+00   3.583049E+00   3.572181E+00   3.569943E+00   3.582252E+00   3.598208E+00   3.649000E+00   3.714872E+00   3.790877E+00   3.863249E+00   3.918284E+00   3.938011E+00   3.934228E+00   3.911728E+00   3.868094E+00   3.820122E+00   3.755167E+00   3.688735E+00   3.614298E+00   3.538758E+00   3.483462E+00   3.436732E+00   3.398534E+00   3.375353E+00   3.354251E+00   3.352300E+00   3.340775E+00   3.328504E+00   3.308813E+00   3.299228E+00   3.304911E+00   3.313761E+00   3.343924E+00   3.403342E+00   3.481861E+00   3.577388E+00   3.681873E+00   3.773122E+00   3.873379E+00   3.963018E+00   4.047335E+00   4.127042E+00   4.192533E+00   4.268119E+00   4.325065E+00   4.356671E+00   4.372942E+00   4.360116E+00   4.335468E+00   4.308263E+00   4.267486E+00   4.212875E+00   4.168961E+00   4.110959E+00   4.072231E+00   4.050333E+00   4.051461E+00   4.074151E+00   4.106704E+00   4.158678E+00   4.213189E+00   4.279380E+00   4.348962E+00   4.431244E+00   4.525040E+00   4.590580E+00   4.616821E+00   4.595751E+00   4.545275E+00   4.457832E+00   4.370917E+00   4.269250E+00   4.164011E+00   4.064036E+00   3.962121E+00   3.866513E+00   3.760724E+00   3.673531E+00   3.573030E+00   3.493777E+00   3.439954E+00   3.401810E+00   3.385029E+00   3.389072E+00   3.415148E+00   3.461347E+00   3.544863E+00   3.647727E+00   3.756833E+00   3.870597E+00   3.969614E+00   4.043498E+00   4.094765E+00   4.129366E+00   4.160775E+00   4.187279E+00   4.202323E+00   4.222133E+00   4.238214E+00   4.251596E+00   4.250289E+00   4.238801E+00   4.202099E+00   4.153013E+00   4.089871E+00   4.032013E+00   3.993593E+00   3.975537E+00   3.977379E+00   3.985301E+00   4.000331E+00   4.005168E+00   4.010220E+00   4.009904E+00   3.991150E+00   3.983154E+00   3.979267E+00
   3.931173E+00   3.887890E+00   3.830016E+00   3.762884E+00   3.694870E+00   3.655876E+00   3.623906E+00   3.600151E+00   3.585897E+00   3.569481E+00   3.518591E+00   3.459323E+00   3.366622E+00   3.277961E+00   3.189346E+00   3.124628E+00   3.088392E+00   3.089734E+00   3.109159E+00   3.146228E+00   3.207229E+00   3.295113E+00   3.409185E+00   3.546493E+00   3.701633E+00   3.869745E+00   4.044543E+00   4.213232E+00   4.364181E+00   4.477084E+00   4.542986E+00   4.578725E+00   4.539627E+00   4.450146E+00   4.313992E+00   4.167072E+00   4.017017E+00   3.866547E+00   3.721325E+00   3.617313E+00   3.532162E+00   3.477672E+00   3.426735E+00   3.378283E+00   3.327072E+00   3.299577E+00   3.291605E+00   3.285748E+00   3.283085E+00   3.269715E+00   3.242195E+00   3.198350E+00   3.152172E+00   3.091836E+00   3.019423E+00   2.953225E+00   2.904943E+00   2.881580E+00   2.897111E+00   2.956128E+00   3.048596E+00   3.177779E+00   3.316818E+00   3.439772E+00   3.541304E+00   3.620638E+00   3.660211E+00   3.671291E+00   3.654905E+00   3.608127E+00   3.537134E+00   3.463348E+00   3.395108E+00   3.346852E+00   3.318469E+00   3.305936E+00   3.306952E+00   3.317434E+00   3.330904E+00   3.344795E+00   3.346290E+00   3.339763E+00   3.320359E+00   3.291600E+00   3.255567E+00   3.224111E+00   3.214259E+00   3.223223E+00   3.256904E+00   3.326708E+00   3.449532E+00   3.571570E+00   3.708035E+00   3.808117E+00   3.860828E+00   3.865843E+00   3.817424E+00   3.748101E+00   3.658842E+00   3.553084E+00   3.436076E+00   3.309247E+00   3.182729E+00   3.081975E+00   3.002670E+00   2.939473E+00   2.898935E+00   2.875490E+00   2.857761E+00   2.842530E+00   2.823025E+00   2.810413E+00   2.814414E+00   2.823917E+00   2.855671E+00   2.913172E+00   2.996904E+00   3.108335E+00   3.251704E+00   3.408202E+00   3.570975E+00   3.748550E+00   3.919990E+00   4.086953E+00   4.236317E+00   4.381763E+00   4.511619E+00   4.608021E+00   4.648586E+00   4.659033E+00   4.639059E+00   4.593552E+00   4.519018E+00   4.415548E+00   4.309446E+00   4.212389E+00   4.139976E+00   4.086571E+00   4.073630E+00   4.088459E+00   4.138802E+00   4.222618E+00   4.297258E+00   4.406847E+00   4.525811E+00   4.680962E+00   4.854630E+00   5.037931E+00   5.182640E+00   5.230411E+00   5.195415E+00   5.072628E+00   4.905173E+00   4.710403E+00   4.497364E+00   4.284628E+00   4.077181E+00   3.883500E+00   3.689415E+00   3.513060E+00   3.339023E+00   3.194838E+00   3.066960E+00   2.986068E+00   2.935619E+00   2.910779E+00   2.919022E+00   2.971579E+00   3.068266E+00   3.207957E+00   3.373971E+00   3.558215E+00   3.746552E+00   3.909705E+00   4.045660E+00   4.142286E+00   4.213272E+00   4.270653E+00   4.312999E+00   4.347837E+00   4.379086E+00   4.414428E+00   4.424733E+00   4.419938E+00   4.381800E+00   4.328496E+00   4.247610E+00   4.152916E+00   4.068330E+00   4.004882E+00   4.003990E+00   4.018879E+00   4.044889E+00   4.059608E+00   4.058012E+00   4.054786E+00   4.036840E+00   4.011718E+00   3.986670E+00   3.982291E+00
   3.911545E+00   3.831702E+00   3.749391E+00   3.665672E+00   3.598812E+00   3.527937E+00   3.482525E+00   3.448653E+00   3.426849E+00   3.390320E+00   3.342752E+00   3.262011E+00   3.175019E+00   3.070925E+00   2.974961E+00   2.897607E+00   2.853604E+00   2.846291E+00   2.866534E+00   2.912822E+00   2.976824E+00   3.079534E+00   3.216145E+00   3.387952E+00   3.577412E+00   3.793764E+00   4.038383E+00   4.276994E+00   4.495824E+00   4.657834E+00   4.768647E+00   4.801739E+00   4.763090E+00   4.652925E+00   4.500783E+00   4.293155E+00   4.082499E+00   3.863335E+00   3.680134E+00   3.528736E+00   3.416096E+00   3.325382E+00   3.259202E+00   3.194591E+00   3.127029E+00   3.063806E+00   3.039209E+00   3.014181E+00   3.012243E+00   3.011215E+00   3.004669E+00   2.979481E+00   2.953372E+00   2.898050E+00   2.834949E+00   2.772876E+00   2.718076E+00   2.692120E+00   2.709995E+00   2.779429E+00   2.893963E+00   3.038876E+00   3.197241E+00   3.348120E+00   3.465598E+00   3.537068E+00   3.565996E+00   3.555297E+00   3.505879E+00   3.430126E+00   3.324148E+00   3.223005E+00   3.130075E+00   3.063306E+00   3.021330E+00   3.001036E+00   3.008919E+00   3.033692E+00   3.074796E+00   3.111285E+00   3.131219E+00   3.131591E+00   3.116742E+00   3.074244E+00   3.034388E+00   2.993358E+00   2.965008E+00   2.957779E+00   2.984582E+00   3.066804E+00   3.196383E+00   3.362192E+00   3.523869E+00   3.667862E+00   3.738769E+00   3.748405E+00   3.707688E+00   3.629655E+00   3.533664E+00   3.403330E+00   3.255740E+00   3.101777E+00   2.953021E+00   2.817226E+00   2.714363E+00   2.633772E+00   2.576654E+00   2.543602E+00   2.525819E+00   2.512209E+00   2.502285E+00   2.501071E+00   2.520396E+00   2.552315E+00   2.595188E+00   2.671801E+00   2.768978E+00   2.892355E+00   3.055901E+00   3.236840E+00   3.429731E+00   3.652748E+00   3.877945E+00   4.097733E+00   4.299340E+00   4.472198E+00   4.633068E+00   4.738436E+00   4.800366E+00   4.799356E+00   4.754713E+00   4.666517E+00   4.541408E+00   4.402932E+00   4.262299E+00   4.144841E+00   4.046890E+00   4.001968E+00   3.997582E+00   4.042743E+00   4.127896E+00   4.226790E+00   4.359236E+00   4.514847E+00   4.710660E+00   4.934447E+00   5.204669E+00   5.455004E+00   5.643024E+00   5.716995E+00   5.674958E+00   5.512429E+00   5.265501E+00   4.981147E+00   4.677284E+00   4.377566E+00   4.084412E+00   3.800799E+00   3.528783E+00   3.281025E+00   3.065309E+00   2.875152E+00   2.742903E+00   2.651830E+00   2.600026E+00   2.586495E+00   2.616571E+00   2.692564E+00   2.815891E+00   2.983671E+00   3.191453E+00   3.408104E+00   3.631700E+00   3.835826E+00   4.016029E+00   4.145821E+00   4.243427E+00   4.309206E+00   4.361217E+00   4.399759E+00   4.422727E+00   4.430191E+00   4.437088E+00   4.415318E+00   4.373858E+00   4.306215E+00   4.231520E+00   4.167241E+00   4.107514E+00   4.083166E+00   4.095530E+00   4.140486E+00   4.191278E+00   4.206260E+00   4.196229E+00   4.158057E+00   4.116501E+00   4.075967E+00   4.039209E+00   4.009593E+00
   3.896493E+00   3.808268E+00   3.706945E+00   3.617482E+00   3.544479E+00   3.483814E+00   3.426863E+00   3.386786E+00   3.349027E+00   3.305464E+00   3.238168E+00   3.162568E+00   3.060896E+00   2.959092E+00   2.861492E+00   2.788604E+00   2.738449E+00   2.722540E+00   2.739321E+00   2.786022E+00   2.847478E+00   2.944713E+00   3.081741E+00   3.264368E+00   3.476923E+00   3.718774E+00   3.984195E+00   4.265496E+00   4.517313E+00   4.717125E+00   4.851136E+00   4.916451E+00   4.878420E+00   4.797457E+00   4.627735E+00   4.408116E+00   4.159823E+00   3.904657E+00   3.671445E+00   3.492317E+00   3.347770E+00   3.229008E+00   3.124656E+00   3.028376E+00   2.943809E+00   2.873134E+00   2.827247E+00   2.791552E+00   2.786757E+00   2.800284E+00   2.825143E+00   2.848138E+00   2.864413E+00   2.863647E+00   2.830379E+00   2.785020E+00   2.741809E+00   2.726300E+00   2.749079E+00   2.821784E+00   2.941445E+00   3.095838E+00   3.256488E+00   3.401757E+00   3.504874E+00   3.551517E+00   3.541365E+00   3.483494E+00   3.397269E+00   3.283984E+00   3.158229E+00   3.025171E+00   2.914755E+00   2.825222E+00   2.781551E+00   2.772351E+00   2.795529E+00   2.835990E+00   2.895763E+00   2.947596E+00   2.992272E+00   3.008265E+00   2.995987E+00   2.955249E+00   2.894273E+00   2.837053E+00   2.786807E+00   2.764394E+00   2.783985E+00   2.851930E+00   2.984880E+00   3.145481E+00   3.331548E+00   3.491976E+00   3.600817E+00   3.640375E+00   3.616393E+00   3.548510E+00   3.453547E+00   3.323480E+00   3.168952E+00   2.995622E+00   2.832691E+00   2.694706E+00   2.573941E+00   2.487872E+00   2.433993E+00   2.393579E+00   2.380975E+00   2.366948E+00   2.370548E+00   2.385100E+00   2.415817E+00   2.466063E+00   2.529870E+00   2.616154E+00   2.714332E+00   2.835476E+00   2.981826E+00   3.154898E+00   3.350120E+00   3.571219E+00   3.813268E+00   4.059025E+00   4.280550E+00   4.464038E+00   4.608644E+00   4.703840E+00   4.741343E+00   4.728733E+00   4.661988E+00   4.551427E+00   4.399925E+00   4.236023E+00   4.082312E+00   3.944607E+00   3.856438E+00   3.807278E+00   3.816237E+00   3.887535E+00   4.004978E+00   4.149745E+00   4.328863E+00   4.553191E+00   4.810936E+00   5.114010E+00   5.421731E+00   5.736771E+00   5.978278E+00   6.084311E+00   6.043440E+00   5.855400E+00   5.550808E+00   5.188220E+00   4.810018E+00   4.451705E+00   4.092423E+00   3.748370E+00   3.424840E+00   3.138278E+00   2.889125E+00   2.700402E+00   2.550534E+00   2.444992E+00   2.391393E+00   2.380156E+00   2.412673E+00   2.497469E+00   2.633974E+00   2.831131E+00   3.049900E+00   3.291879E+00   3.531876E+00   3.766472E+00   3.958037E+00   4.113090E+00   4.209303E+00   4.281527E+00   4.319089E+00   4.339222E+00   4.337174E+00   4.334657E+00   4.302719E+00   4.280586E+00   4.231143E+00   4.189143E+00   4.154928E+00   4.129432E+00   4.138486E+00   4.184968E+00   4.258613E+00   4.340721E+00   4.393836E+00   4.415473E+00   4.385954E+00   4.323236E+00   4.236969E+00   4.156006E+00   4.091957E+00   4.036528E+00
   3.901871E+00   3.810049E+00   3.713374E+00   3.630640E+00   3.559032E+00   3.493561E+00   3.438720E+00   3.387308E+00   3.350799E+00   3.289496E+00   3.217136E+00   3.122313E+00   3.024163E+00   2.923354E+00   2.831974E+00   2.753795E+00   2.702375E+00   2.679410E+00   2.700473E+00   2.743254E+00   2.818349E+00   2.927239E+00   3.056962E+00   3.230983E+00   3.439086E+00   3.676201E+00   3.933346E+00   4.188409E+00   4.436082E+00   4.642627E+00   4.792988E+00   4.873066E+00   4.909383E+00   4.865196E+00   4.747194E+00   4.554497E+00   4.324266E+00   4.030523E+00   3.759323E+00   3.508904E+00   3.314240E+00   3.156799E+00   3.022865E+00   2.903955E+00   2.799931E+00   2.721685E+00   2.671517E+00   2.639431E+00   2.637072E+00   2.670735E+00   2.739136E+00   2.823368E+00   2.910474E+00   2.960972E+00   2.976523E+00   2.960644E+00   2.945808E+00   2.945160E+00   2.983219E+00   3.057869E+00   3.184693E+00   3.341666E+00   3.499000E+00   3.627420E+00   3.703302E+00   3.705535E+00   3.643567E+00   3.535140E+00   3.394288E+00   3.237834E+00   3.074201E+00   2.924163E+00   2.788396E+00   2.691252E+00   2.641691E+00   2.636197E+00   2.665231E+00   2.729296E+00   2.799984E+00   2.866178E+00   2.918138E+00   2.931309E+00   2.906153E+00   2.851704E+00   2.781805E+00   2.705052E+00   2.636776E+00   2.599367E+00   2.599305E+00   2.653940E+00   2.769856E+00   2.935828E+00   3.119293E+00   3.298726E+00   3.442165E+00   3.518175E+00   3.534085E+00   3.508432E+00   3.444493E+00   3.340501E+00   3.192454E+00   3.012790E+00   2.849206E+00   2.706504E+00   2.596065E+00   2.518701E+00   2.464268E+00   2.428293E+00   2.404623E+00   2.406841E+00   2.422187E+00   2.448532E+00   2.486651E+00   2.553233E+00   2.621765E+00   2.698139E+00   2.789709E+00   2.883143E+00   3.000491E+00   3.141091E+00   3.319905E+00   3.524087E+00   3.753628E+00   3.991717E+00   4.187949E+00   4.355575E+00   4.461314E+00   4.499614E+00   4.505476E+00   4.484852E+00   4.418865E+00   4.309616E+00   4.154542E+00   4.001637E+00   3.840435E+00   3.701830E+00   3.601061E+00   3.565746E+00   3.584865E+00   3.674467E+00   3.811380E+00   4.003895E+00   4.232666E+00   4.505245E+00   4.816532E+00   5.151378E+00   5.489072E+00   5.836554E+00   6.112609E+00   6.268044E+00   6.250499E+00   6.081151E+00   5.758437E+00   5.354777E+00   4.927348E+00   4.504220E+00   4.098601E+00   3.719986E+00   3.368283E+00   3.066041E+00   2.810839E+00   2.600829E+00   2.445276E+00   2.332148E+00   2.270493E+00   2.254735E+00   2.288122E+00   2.376115E+00   2.523256E+00   2.715315E+00   2.944791E+00   3.190782E+00   3.443201E+00   3.688906E+00   3.913261E+00   4.079815E+00   4.192609E+00   4.246451E+00   4.279192E+00   4.268139E+00   4.247589E+00   4.206336E+00   4.172328E+00   4.134891E+00   4.107725E+00   4.081002E+00   4.088260E+00   4.122526E+00   4.193380E+00   4.300840E+00   4.423549E+00   4.541056E+00   4.622906E+00   4.633770E+00   4.597815E+00   4.522473E+00   4.414460E+00   4.300127E+00   4.189085E+00   4.089296E+00
   3.927811E+00   3.860697E+00   3.788745E+00   3.723369E+00   3.643939E+00   3.575343E+00   3.507496E+00   3.460515E+00   3.413013E+00   3.348136E+00   3.263467E+00   3.164750E+00   3.053508E+00   2.956832E+00   2.865498E+00   2.792027E+00   2.733981E+00   2.716914E+00   2.735402E+00   2.798675E+00   2.882419E+00   2.998447E+00   3.128708E+00   3.293795E+00   3.481182E+00   3.682020E+00   3.902284E+00   4.138933E+00   4.359256E+00   4.560070E+00   4.716985E+00   4.837976E+00   4.929688E+00   4.955294E+00   4.887291E+00   4.749820E+00   4.529586E+00   4.227445E+00   3.908636E+00   3.604543E+00   3.351303E+00   3.144877E+00   2.971083E+00   2.837332E+00   2.728570E+00   2.643083E+00   2.594139E+00   2.572941E+00   2.600171E+00   2.667447E+00   2.776599E+00   2.913878E+00   3.052036E+00   3.166461E+00   3.228473E+00   3.264289E+00   3.281615E+00   3.301545E+00   3.351364E+00   3.446060E+00   3.576977E+00   3.732754E+00   3.894820E+00   4.003118E+00   4.043104E+00   3.995892E+00   3.873192E+00   3.711400E+00   3.518221E+00   3.313572E+00   3.125524E+00   2.946518E+00   2.803395E+00   2.694497E+00   2.638931E+00   2.634154E+00   2.659498E+00   2.716678E+00   2.789832E+00   2.847463E+00   2.889637E+00   2.890371E+00   2.852820E+00   2.789942E+00   2.706744E+00   2.613896E+00   2.526785E+00   2.465563E+00   2.452547E+00   2.498096E+00   2.601966E+00   2.761048E+00   2.956050E+00   3.156438E+00   3.335257E+00   3.460783E+00   3.530552E+00   3.550452E+00   3.522155E+00   3.436588E+00   3.299355E+00   3.143708E+00   2.984255E+00   2.847529E+00   2.743589E+00   2.675261E+00   2.635969E+00   2.606031E+00   2.594713E+00   2.592202E+00   2.609319E+00   2.639383E+00   2.691330E+00   2.750775E+00   2.812987E+00   2.870659E+00   2.921335E+00   2.980982E+00   3.060575E+00   3.169423E+00   3.313483E+00   3.483016E+00   3.679469E+00   3.871984E+00   4.036477E+00   4.143053E+00   4.185409E+00   4.176217E+00   4.163354E+00   4.129800E+00   4.091908E+00   4.017697E+00   3.917306E+00   3.791206E+00   3.648049E+00   3.509041E+00   3.404743E+00   3.358060E+00   3.388703E+00   3.479596E+00   3.632063E+00   3.853842E+00   4.107512E+00   4.400476E+00   4.726642E+00   5.081052E+00   5.439538E+00   5.796009E+00   6.091324E+00   6.273894E+00   6.309413E+00   6.157185E+00   5.831415E+00   5.429058E+00   4.997879E+00   4.558158E+00   4.132718E+00   3.731455E+00   3.385003E+00   3.080404E+00   2.820954E+00   2.606172E+00   2.436909E+00   2.311060E+00   2.234008E+00   2.206203E+00   2.235503E+00   2.314866E+00   2.455822E+00   2.643980E+00   2.873327E+00   3.127900E+00   3.389069E+00   3.644292E+00   3.861005E+00   4.029786E+00   4.142530E+00   4.208930E+00   4.219961E+00   4.215744E+00   4.167695E+00   4.130933E+00   4.083583E+00   4.053188E+00   4.027140E+00   4.034048E+00   4.065487E+00   4.130140E+00   4.237462E+00   4.388296E+00   4.552829E+00   4.687517E+00   4.764199E+00   4.776187E+00   4.729187E+00   4.654541E+00   4.558987E+00   4.432426E+00   4.291436E+00   4.145045E+00
   3.979266E+00   3.956150E+00   3.916201E+00   3.846314E+00   3.787475E+00   3.702569E+00   3.640756E+00   3.585651E+00   3.539016E+00   3.470324E+00   3.375117E+00   3.261219E+00   3.137543E+00   3.033096E+00   2.943496E+00   2.872144E+00   2.820169E+00   2.791423E+00   2.820732E+00   2.884240E+00   2.985230E+00   3.111279E+00   3.237950E+00   3.392483E+00   3.557837E+00   3.741086E+00   3.942397E+00   4.131666E+00   4.331931E+00   4.529816E+00   4.723010E+00   4.877022E+00   4.994701E+00   5.068830E+00   5.075303E+00   4.980994E+00   4.779602E+00   4.476097E+00   4.124360E+00   3.774000E+00   3.476564E+00   3.219609E+00   3.016536E+00   2.855416E+00   2.731867E+00   2.651005E+00   2.602537E+00   2.606753E+00   2.659267E+00   2.754076E+00   2.901952E+00   3.083685E+00   3.264789E+00   3.425466E+00   3.535775E+00   3.600818E+00   3.640899E+00   3.670900E+00   3.742218E+00   3.855385E+00   4.003625E+00   4.174203E+00   4.336428E+00   4.435131E+00   4.438235E+00   4.351840E+00   4.189228E+00   3.980309E+00   3.749922E+00   3.520668E+00   3.295949E+00   3.104769E+00   2.944062E+00   2.832922E+00   2.760108E+00   2.730532E+00   2.735504E+00   2.772004E+00   2.823990E+00   2.866850E+00   2.880370E+00   2.862694E+00   2.808398E+00   2.741727E+00   2.651159E+00   2.550705E+00   2.459993E+00   2.393935E+00   2.382207E+00   2.432443E+00   2.542779E+00   2.699143E+00   2.900640E+00   3.110415E+00   3.316252E+00   3.494117E+00   3.620631E+00   3.673871E+00   3.670311E+00   3.599234E+00   3.483560E+00   3.343615E+00   3.199939E+00   3.071694E+00   2.981744E+00   2.925829E+00   2.895622E+00   2.879297E+00   2.873858E+00   2.873137E+00   2.885371E+00   2.914379E+00   2.965353E+00   3.022546E+00   3.066359E+00   3.108454E+00   3.122196E+00   3.139030E+00   3.170559E+00   3.221070E+00   3.308474E+00   3.420900E+00   3.553311E+00   3.683037E+00   3.774431E+00   3.814164E+00   3.802497E+00   3.771372E+00   3.744002E+00   3.736696E+00   3.735471E+00   3.736024E+00   3.699089E+00   3.620067E+00   3.521086E+00   3.398042E+00   3.291577E+00   3.229405E+00   3.249431E+00   3.343212E+00   3.512412E+00   3.753283E+00   4.029931E+00   4.332141E+00   4.644994E+00   4.977708E+00   5.324703E+00   5.669197E+00   5.977014E+00   6.188821E+00   6.238527E+00   6.109139E+00   5.833561E+00   5.471619E+00   5.046379E+00   4.616567E+00   4.184569E+00   3.797441E+00   3.450734E+00   3.152753E+00   2.899041E+00   2.672664E+00   2.491940E+00   2.356833E+00   2.272311E+00   2.236184E+00   2.257854E+00   2.327029E+00   2.455376E+00   2.631933E+00   2.853952E+00   3.111019E+00   3.385863E+00   3.642959E+00   3.848582E+00   3.999701E+00   4.091954E+00   4.131385E+00   4.142363E+00   4.115941E+00   4.074334E+00   4.032253E+00   3.995163E+00   3.960067E+00   3.949662E+00   3.955161E+00   4.000648E+00   4.076080E+00   4.202981E+00   4.372236E+00   4.537137E+00   4.675599E+00   4.759110E+00   4.768189E+00   4.728029E+00   4.655838E+00   4.566778E+00   4.446475E+00   4.311238E+00   4.158991E+00
   4.043939E+00   4.084246E+00   4.071561E+00   4.037473E+00   3.961165E+00   3.885409E+00   3.814000E+00   3.759925E+00   3.693496E+00   3.604614E+00   3.480595E+00   3.350705E+00   3.221878E+00   3.114652E+00   3.028201E+00   2.969037E+00   2.914190E+00   2.901525E+00   2.924985E+00   2.989768E+00   3.088943E+00   3.215274E+00   3.342984E+00   3.479656E+00   3.628319E+00   3.798529E+00   3.966905E+00   4.148904E+00   4.343023E+00   4.552987E+00   4.757504E+00   4.955838E+00   5.106289E+00   5.218635E+00   5.244845E+00   5.181058E+00   5.009945E+00   4.737086E+00   4.381250E+00   4.004393E+00   3.652250E+00   3.364197E+00   3.127129E+00   2.945489E+00   2.820033E+00   2.736256E+00   2.707497E+00   2.717264E+00   2.787745E+00   2.909488E+00   3.080907E+00   3.272814E+00   3.458615E+00   3.628857E+00   3.748475E+00   3.826696E+00   3.874919E+00   3.941572E+00   4.036649E+00   4.176199E+00   4.367262E+00   4.566650E+00   4.749689E+00   4.856721E+00   4.848258E+00   4.724667E+00   4.530860E+00   4.301941E+00   4.057459E+00   3.806086E+00   3.578247E+00   3.378944E+00   3.201991E+00   3.065791E+00   2.968100E+00   2.905786E+00   2.886070E+00   2.880590E+00   2.896174E+00   2.904813E+00   2.899900E+00   2.859062E+00   2.798532E+00   2.724112E+00   2.642931E+00   2.555180E+00   2.475806E+00   2.430739E+00   2.431507E+00   2.497084E+00   2.613725E+00   2.782129E+00   2.976008E+00   3.193433E+00   3.412222E+00   3.608024E+00   3.763278E+00   3.837801E+00   3.842651E+00   3.784420E+00   3.672362E+00   3.546534E+00   3.415628E+00   3.298443E+00   3.212218E+00   3.164405E+00   3.148689E+00   3.143535E+00   3.147864E+00   3.159818E+00   3.178847E+00   3.207540E+00   3.260225E+00   3.310998E+00   3.340502E+00   3.345899E+00   3.324576E+00   3.287877E+00   3.258301E+00   3.244952E+00   3.259703E+00   3.297895E+00   3.354264E+00   3.409940E+00   3.442140E+00   3.444066E+00   3.414993E+00   3.382053E+00   3.374866E+00   3.390048E+00   3.444704E+00   3.502614E+00   3.535419E+00   3.518929E+00   3.461796E+00   3.369409E+00   3.284215E+00   3.227636E+00   3.242707E+00   3.322149E+00   3.490589E+00   3.741177E+00   4.033758E+00   4.338093E+00   4.635681E+00   4.930914E+00   5.238936E+00   5.556037E+00   5.845707E+00   6.058521E+00   6.142122E+00   6.061847E+00   5.839079E+00   5.500779E+00   5.101658E+00   4.674530E+00   4.268862E+00   3.885288E+00   3.559413E+00   3.277405E+00   3.027770E+00   2.793184E+00   2.600518E+00   2.452060E+00   2.351811E+00   2.308860E+00   2.313891E+00   2.382356E+00   2.499577E+00   2.668894E+00   2.871862E+00   3.122665E+00   3.385039E+00   3.627338E+00   3.814799E+00   3.943790E+00   4.011695E+00   4.035473E+00   4.031613E+00   3.990023E+00   3.960693E+00   3.940918E+00   3.914858E+00   3.893253E+00   3.875731E+00   3.878396E+00   3.913986E+00   3.978981E+00   4.088445E+00   4.229297E+00   4.381831E+00   4.500952E+00   4.581542E+00   4.594132E+00   4.575785E+00   4.527506E+00   4.442682E+00   4.360723E+00   4.255038E+00   4.139211E+00
   4.118181E+00   4.210818E+00   4.262768E+00   4.250147E+00   4.208691E+00   4.125398E+00   4.065492E+00   3.997747E+00   3.909652E+00   3.780042E+00   3.619204E+00   3.459436E+00   3.315816E+00   3.197172E+00   3.116184E+00   3.068681E+00   3.036695E+00   3.024990E+00   3.038157E+00   3.091774E+00   3.171322E+00   3.277102E+00   3.404513E+00   3.532975E+00   3.673442E+00   3.817611E+00   3.981234E+00   4.160796E+00   4.384694E+00   4.597616E+00   4.815035E+00   5.007109E+00   5.182676E+00   5.290444E+00   5.336946E+00   5.286129E+00   5.156984E+00   4.925764E+00   4.612214E+00   4.239917E+00   3.878061E+00   3.554773E+00   3.295609E+00   3.101640E+00   2.960293E+00   2.877724E+00   2.847430E+00   2.877196E+00   2.958240E+00   3.078825E+00   3.238767E+00   3.414261E+00   3.595963E+00   3.736896E+00   3.843208E+00   3.910423E+00   3.973819E+00   4.058512E+00   4.187990E+00   4.376823E+00   4.612280E+00   4.859609E+00   5.051923E+00   5.165303E+00   5.162562E+00   5.044752E+00   4.843447E+00   4.610836E+00   4.366468E+00   4.128072E+00   3.917158E+00   3.720424E+00   3.535129E+00   3.382151E+00   3.238421E+00   3.138120E+00   3.068055E+00   3.020049E+00   2.986508E+00   2.955658E+00   2.920882E+00   2.867335E+00   2.804738E+00   2.742343E+00   2.669619E+00   2.616959E+00   2.576308E+00   2.566182E+00   2.601565E+00   2.682132E+00   2.829193E+00   3.010986E+00   3.223318E+00   3.450252E+00   3.653715E+00   3.813058E+00   3.943105E+00   4.020381E+00   4.008927E+00   3.952111E+00   3.841362E+00   3.726064E+00   3.609804E+00   3.506066E+00   3.425506E+00   3.373080E+00   3.342573E+00   3.343730E+00   3.354241E+00   3.379853E+00   3.413401E+00   3.449535E+00   3.492419E+00   3.513234E+00   3.511340E+00   3.486244E+00   3.432977E+00   3.358540E+00   3.270422E+00   3.190006E+00   3.132764E+00   3.100336E+00   3.091326E+00   3.086259E+00   3.077357E+00   3.064348E+00   3.046130E+00   3.046435E+00   3.069719E+00   3.128897E+00   3.219628E+00   3.329570E+00   3.413053E+00   3.460486E+00   3.453736E+00   3.415495E+00   3.354270E+00   3.319331E+00   3.333444E+00   3.424601E+00   3.582921E+00   3.817520E+00   4.090333E+00   4.375387E+00   4.641791E+00   4.914026E+00   5.187949E+00   5.480538E+00   5.737889E+00   5.935492E+00   6.019552E+00   5.967957E+00   5.782052E+00   5.505520E+00   5.157310E+00   4.772973E+00   4.397809E+00   4.036292E+00   3.707051E+00   3.424546E+00   3.168642E+00   2.935718E+00   2.729102E+00   2.576344E+00   2.472461E+00   2.422725E+00   2.430542E+00   2.485248E+00   2.601723E+00   2.751926E+00   2.948793E+00   3.172868E+00   3.409063E+00   3.626864E+00   3.804057E+00   3.901153E+00   3.955396E+00   3.968734E+00   3.953454E+00   3.917890E+00   3.893238E+00   3.872987E+00   3.862535E+00   3.836512E+00   3.818333E+00   3.802794E+00   3.816172E+00   3.857669E+00   3.934240E+00   4.038019E+00   4.145411E+00   4.244069E+00   4.295499E+00   4.320789E+00   4.320821E+00   4.298229E+00   4.258314E+00   4.217185E+00   4.165393E+00   4.084804E+00