# LPF package for  MODFLOW-2005, generated by Flopy.
         0    -1E+30         0  
         0
         0
   1.000000E+00
         0
         0
INTERNAL               1 (200E15.6) -1 #hk layer 1                    
   2.839780E+00   2.839406E+00   2.838909E+00   2.838214E+00   2.837670E+00   2.837230E+00   2.836910E+00   2.836596E+00   2.836579E+00   2.836260E+00   2.836002E+00   2.835564E+00   2.835076E+00   2.834500E+00   2.833816E+00   2.833328E+00   2.833060E+00   2.833097E+00   2.833243E+00   2.833612E+00   2.834134E+00   2.834823E+00   2.835622E+00   2.836692E+00   2.837539E+00   2.838365E+00   2.839135E+00   2.839962E+00   2.840738E+00   2.841421E+00   2.841871E+00   2.842118E+00   2.842071E+00   2.841551E+00   2.840955E+00   2.840138E+00   2.839441E+00   2.838713E+00   2.838180E+00   2.837703E+00   2.837256E+00   2.836860E+00   2.836378E+00   2.835644E+00   2.834909E+00   2.834252E+00   2.833656E+00   2.832946E+00   2.832319E+00   2.831636E+00   2.830828E+00   2.830012E+00   2.829273E+00   2.828483E+00   2.827910E+00   2.827288E+00   2.826923E+00   2.826826E+00   2.827320E+00   2.828281E+00   2.829361E+00   2.830643E+00   2.832021E+00   2.833252E+00   2.834135E+00   2.834856E+00   2.835305E+00   2.835768E+00   2.836058E+00   2.836154E+00   2.836025E+00   2.835950E+00   2.836041E+00   2.836316E+00   2.836719E+00   2.836885E+00   2.837088E+00   2.836948E+00   2.836521E+00   2.836042E+00   2.835654E+00   2.835110E+00   2.834693E+00   2.834401E+00   2.834166E+00   2.834066E+00   2.834190E+00   2.834569E+00   2.835031E+00   2.835894E+00   2.836878E+00   2.837818E+00   2.838665E+00   2.839162E+00   2.839137E+00   2.838688E+00   2.838027E+00   2.837217E+00   2.836475E+00   2.835603E+00   2.834773E+00   2.833918E+00   2.833136E+00   2.832762E+00   2.832502E+00   2.832366E+00   2.832464E+00   2.832513E+00   2.832847E+00   2.832996E+00   2.833112E+00   2.833099E+00   2.833211E+00   2.833566E+00   2.833898E+00   2.834557E+00   2.835648E+00   2.837019E+00   2.838551E+00   2.840106E+00   2.841367E+00   2.842626E+00   2.843597E+00   2.844387E+00   2.845056E+00   2.845481E+00   2.846050E+00   2.846350E+00   2.846326E+00   2.846201E+00   2.845819E+00   2.845374E+00   2.844910E+00   2.844307E+00   2.843606E+00   2.843141E+00   2.842501E+00   2.842153E+00   2.842073E+00   2.842391E+00   2.842873E+00   2.843407E+00   2.844041E+00   2.844570E+00   2.845153E+00   2.845720E+00   2.846321E+00   2.847048E+00   2.847437E+00   2.847351E+00   2.846648E+00   2.845566E+00   2.844118E+00   2.842835E+00   2.841535E+00   2.840308E+00   2.839269E+00   2.838223E+00   2.837220E+00   2.836051E+00   2.835023E+00   2.833621E+00   2.832348E+00   2.831323E+00   2.830417E+00   2.829768E+00   2.829299E+00   2.829029E+00   2.829094E+00   2.829671E+00   2.830679E+00   2.831898E+00   2.833293E+00   2.834747E+00   2.835978E+00   2.837035E+00   2.837931E+00   2.838876E+00   2.839886E+00   2.840778E+00   2.841668E+00   2.842440E+00   2.843067E+00   2.843406E+00   2.843497E+00   2.843127E+00   2.842468E+00   2.841587E+00   2.840819E+00   2.840326E+00   2.840184E+00   2.840345E+00   2.840552E+00   2.840791E+00   2.840830E+00   2.840826E+00   2.840744E+00   2.840353E+00   2.840189E+00   2.840068E+00
   2.839483E+00   2.838943E+00   2.838155E+00   2.837013E+00   2.835764E+00   2.834841E+00   2.834044E+00   2.833463E+00   2.833239E+00   2.833100E+00   2.832601E+00   2.832043E+00   2.830974E+00   2.829905E+00   2.828699E+00   2.827670E+00   2.827024E+00   2.827018E+00   2.827236E+00   2.827754E+00   2.828571E+00   2.829787E+00   2.831301E+00   2.832941E+00   2.834681E+00   2.836465E+00   2.838344E+00   2.840113E+00   2.841761E+00   2.842990E+00   2.843790E+00   2.844356E+00   2.844080E+00   2.843243E+00   2.841881E+00   2.840477E+00   2.839103E+00   2.837685E+00   2.836250E+00   2.835253E+00   2.834365E+00   2.833719E+00   2.832860E+00   2.831790E+00   2.830411E+00   2.829154E+00   2.828007E+00   2.826747E+00   2.825517E+00   2.824162E+00   2.822715E+00   2.821252E+00   2.819980E+00   2.818597E+00   2.817141E+00   2.816009E+00   2.815289E+00   2.815223E+00   2.815983E+00   2.817640E+00   2.819793E+00   2.822445E+00   2.825144E+00   2.827379E+00   2.829223E+00   2.830593E+00   2.831393E+00   2.831850E+00   2.832173E+00   2.832175E+00   2.832050E+00   2.831977E+00   2.832067E+00   2.832273E+00   2.832576E+00   2.832809E+00   2.832917E+00   2.832771E+00   2.832475E+00   2.831984E+00   2.831330E+00   2.830613E+00   2.829849E+00   2.829147E+00   2.828517E+00   2.828216E+00   2.828393E+00   2.828950E+00   2.829878E+00   2.831279E+00   2.833293E+00   2.834935E+00   2.836552E+00   2.837470E+00   2.837559E+00   2.836965E+00   2.835730E+00   2.834412E+00   2.832982E+00   2.831535E+00   2.830137E+00   2.828681E+00   2.827271E+00   2.826381E+00   2.825885E+00   2.825618E+00   2.825690E+00   2.826005E+00   2.826312E+00   2.826692E+00   2.826859E+00   2.827170E+00   2.827760E+00   2.828356E+00   2.829269E+00   2.830622E+00   2.832389E+00   2.834540E+00   2.837065E+00   2.839652E+00   2.842074E+00   2.844404E+00   2.846409E+00   2.848089E+00   2.849323E+00   2.850390E+00   2.851192E+00   2.851636E+00   2.851403E+00   2.850955E+00   2.850330E+00   2.849494E+00   2.848417E+00   2.847067E+00   2.845764E+00   2.844691E+00   2.844021E+00   2.843683E+00   2.843946E+00   2.844536E+00   2.845496E+00   2.846688E+00   2.847584E+00   2.848570E+00   2.849423E+00   2.850508E+00   2.851709E+00   2.852898E+00   2.853598E+00   2.853217E+00   2.851968E+00   2.849836E+00   2.847338E+00   2.844807E+00   2.842294E+00   2.839916E+00   2.837755E+00   2.835753E+00   2.833604E+00   2.831506E+00   2.829171E+00   2.826996E+00   2.824820E+00   2.823117E+00   2.821644E+00   2.820434E+00   2.819587E+00   2.819398E+00   2.819823E+00   2.820967E+00   2.822665E+00   2.824772E+00   2.827203E+00   2.829601E+00   2.831838E+00   2.833788E+00   2.835598E+00   2.837444E+00   2.839256E+00   2.840977E+00   2.842569E+00   2.844044E+00   2.844965E+00   2.845470E+00   2.845384E+00   2.844846E+00   2.843808E+00   2.842497E+00   2.841278E+00   2.840415E+00   2.840469E+00   2.840802E+00   2.841263E+00   2.841505E+00   2.841477E+00   2.841388E+00   2.841067E+00   2.840624E+00   2.840121E+00   2.840042E+00
   2.839459E+00   2.838626E+00   2.837574E+00   2.836250E+00   2.834928E+00   2.833368E+00   2.832179E+00   2.831342E+00   2.830945E+00   2.830518E+00   2.830069E+00   2.829186E+00   2.828155E+00   2.826765E+00   2.825309E+00   2.824016E+00   2.823167E+00   2.822914E+00   2.823097E+00   2.823698E+00   2.824558E+00   2.826040E+00   2.827928E+00   2.830169E+00   2.832380E+00   2.834827E+00   2.837554E+00   2.840201E+00   2.842496E+00   2.844183E+00   2.845361E+00   2.845820E+00   2.845491E+00   2.844405E+00   2.842914E+00   2.840777E+00   2.838677E+00   2.836434E+00   2.834581E+00   2.833054E+00   2.831885E+00   2.830758E+00   2.829764E+00   2.828460E+00   2.826693E+00   2.824590E+00   2.822852E+00   2.820924E+00   2.819338E+00   2.817825E+00   2.816324E+00   2.814721E+00   2.813387E+00   2.811682E+00   2.810133E+00   2.808808E+00   2.807830E+00   2.807636E+00   2.808559E+00   2.810678E+00   2.813637E+00   2.817078E+00   2.820525E+00   2.823653E+00   2.826055E+00   2.827724E+00   2.828707E+00   2.829241E+00   2.829300E+00   2.829199E+00   2.828780E+00   2.828514E+00   2.828285E+00   2.828252E+00   2.828290E+00   2.828268E+00   2.828281E+00   2.828220E+00   2.828140E+00   2.827853E+00   2.827265E+00   2.826564E+00   2.825794E+00   2.824804E+00   2.824195E+00   2.823881E+00   2.823954E+00   2.824453E+00   2.825426E+00   2.827231E+00   2.829453E+00   2.831942E+00   2.833907E+00   2.835324E+00   2.835453E+00   2.834702E+00   2.833398E+00   2.831833E+00   2.830325E+00   2.828638E+00   2.826848E+00   2.825197E+00   2.823636E+00   2.822316E+00   2.821540E+00   2.821047E+00   2.820929E+00   2.821220E+00   2.821675E+00   2.822113E+00   2.822525E+00   2.823045E+00   2.824054E+00   2.825238E+00   2.826574E+00   2.828449E+00   2.830661E+00   2.833230E+00   2.836358E+00   2.839518E+00   2.842546E+00   2.845643E+00   2.848436E+00   2.850752E+00   2.852534E+00   2.853665E+00   2.854606E+00   2.854928E+00   2.854824E+00   2.854149E+00   2.853096E+00   2.851732E+00   2.850098E+00   2.848475E+00   2.846879E+00   2.845610E+00   2.844671E+00   2.844577E+00   2.845000E+00   2.846070E+00   2.847453E+00   2.848809E+00   2.850247E+00   2.851598E+00   2.853055E+00   2.854482E+00   2.856170E+00   2.857412E+00   2.857867E+00   2.857173E+00   2.855459E+00   2.852731E+00   2.849448E+00   2.846112E+00   2.842804E+00   2.839638E+00   2.836570E+00   2.833514E+00   2.830320E+00   2.827161E+00   2.824074E+00   2.820898E+00   2.818393E+00   2.816307E+00   2.814624E+00   2.813331E+00   2.812648E+00   2.812630E+00   2.813280E+00   2.814736E+00   2.816920E+00   2.819468E+00   2.822444E+00   2.825495E+00   2.828559E+00   2.831203E+00   2.833717E+00   2.836071E+00   2.838469E+00   2.840772E+00   2.842687E+00   2.844182E+00   2.845349E+00   2.845752E+00   2.845560E+00   2.844716E+00   2.843568E+00   2.842523E+00   2.841494E+00   2.840982E+00   2.841030E+00   2.841603E+00   2.842291E+00   2.842477E+00   2.842343E+00   2.841872E+00   2.841389E+00   2.840924E+00   2.840553E+00   2.840265E+00
   2.839612E+00   2.838898E+00   2.837629E+00   2.836263E+00   2.834901E+00   2.833514E+00   2.832119E+00   2.831215E+00   2.830529E+00   2.829955E+00   2.829225E+00   2.828338E+00   2.826973E+00   2.825450E+00   2.823849E+00   2.822478E+00   2.821400E+00   2.820858E+00   2.820929E+00   2.821485E+00   2.822370E+00   2.823822E+00   2.825767E+00   2.828210E+00   2.830856E+00   2.833654E+00   2.836699E+00   2.839767E+00   2.842433E+00   2.844413E+00   2.845732E+00   2.846258E+00   2.845743E+00   2.844839E+00   2.843046E+00   2.840732E+00   2.838076E+00   2.835304E+00   2.832752E+00   2.830900E+00   2.829382E+00   2.827914E+00   2.826368E+00   2.824618E+00   2.822608E+00   2.820341E+00   2.818149E+00   2.815833E+00   2.813966E+00   2.812431E+00   2.811205E+00   2.810134E+00   2.809144E+00   2.808099E+00   2.806769E+00   2.805531E+00   2.804626E+00   2.804577E+00   2.805704E+00   2.807950E+00   2.811234E+00   2.815129E+00   2.819042E+00   2.822449E+00   2.825154E+00   2.826869E+00   2.827738E+00   2.827896E+00   2.827724E+00   2.827180E+00   2.826526E+00   2.825700E+00   2.825065E+00   2.824474E+00   2.824220E+00   2.824069E+00   2.824087E+00   2.824098E+00   2.824221E+00   2.824095E+00   2.823954E+00   2.823468E+00   2.822781E+00   2.821958E+00   2.821171E+00   2.820782E+00   2.820659E+00   2.821092E+00   2.822171E+00   2.823819E+00   2.826304E+00   2.828719E+00   2.831099E+00   2.832659E+00   2.833174E+00   2.832719E+00   2.831611E+00   2.830148E+00   2.828782E+00   2.827240E+00   2.825577E+00   2.823668E+00   2.822086E+00   2.820905E+00   2.819934E+00   2.819426E+00   2.819358E+00   2.819413E+00   2.819927E+00   2.820228E+00   2.820863E+00   2.821648E+00   2.822833E+00   2.824447E+00   2.826270E+00   2.828417E+00   2.830761E+00   2.833429E+00   2.836370E+00   2.839550E+00   2.842748E+00   2.845948E+00   2.849054E+00   2.851839E+00   2.853951E+00   2.855389E+00   2.856174E+00   2.856356E+00   2.855935E+00   2.855139E+00   2.853874E+00   2.852310E+00   2.850413E+00   2.848529E+00   2.846794E+00   2.845330E+00   2.844526E+00   2.844304E+00   2.844868E+00   2.846308E+00   2.848163E+00   2.849981E+00   2.851872E+00   2.853864E+00   2.855797E+00   2.857744E+00   2.859307E+00   2.860562E+00   2.860925E+00   2.860083E+00   2.858096E+00   2.855067E+00   2.851313E+00   2.847227E+00   2.843290E+00   2.839599E+00   2.835906E+00   2.832041E+00   2.828150E+00   2.824324E+00   2.820552E+00   2.817353E+00   2.814347E+00   2.811816E+00   2.809971E+00   2.808561E+00   2.807770E+00   2.807769E+00   2.808634E+00   2.810591E+00   2.812940E+00   2.815830E+00   2.819051E+00   2.822600E+00   2.826009E+00   2.829291E+00   2.832117E+00   2.834923E+00   2.837483E+00   2.839819E+00   2.841714E+00   2.843322E+00   2.844088E+00   2.844403E+00   2.843952E+00   2.843212E+00   2.842315E+00   2.841428E+00   2.840975E+00   2.841088E+00   2.841611E+00   2.842356E+00   2.842858E+00   2.843050E+00   2.842771E+00   2.842171E+00   2.841377E+00   2.840739E+00   2.840389E+00   2.840192E+00
   2.839973E+00   2.839447E+00   2.838472E+00   2.837321E+00   2.836026E+00   2.834672E+00   2.833448E+00   2.832443E+00   2.831794E+00   2.830959E+00   2.830109E+00   2.828840E+00   2.827443E+00   2.825774E+00   2.824117E+00   2.822515E+00   2.821195E+00   2.820432E+00   2.820567E+00   2.821092E+00   2.822269E+00   2.823956E+00   2.825782E+00   2.828150E+00   2.830757E+00   2.833532E+00   2.836332E+00   2.839122E+00   2.841691E+00   2.843726E+00   2.845016E+00   2.845511E+00   2.845542E+00   2.844739E+00   2.843223E+00   2.840997E+00   2.838461E+00   2.835084E+00   2.831988E+00   2.829145E+00   2.826944E+00   2.825029E+00   2.823153E+00   2.821118E+00   2.818821E+00   2.816497E+00   2.814265E+00   2.812009E+00   2.810082E+00   2.808806E+00   2.808245E+00   2.808048E+00   2.808040E+00   2.807537E+00   2.806766E+00   2.805827E+00   2.805340E+00   2.805571E+00   2.806944E+00   2.809291E+00   2.812786E+00   2.816913E+00   2.820981E+00   2.824522E+00   2.827218E+00   2.828807E+00   2.829420E+00   2.829291E+00   2.828539E+00   2.827428E+00   2.826050E+00   2.824688E+00   2.823261E+00   2.822148E+00   2.821479E+00   2.821125E+00   2.820975E+00   2.821173E+00   2.821372E+00   2.821508E+00   2.821556E+00   2.821190E+00   2.820458E+00   2.819571E+00   2.818868E+00   2.818325E+00   2.818046E+00   2.818313E+00   2.819073E+00   2.820526E+00   2.822687E+00   2.825271E+00   2.827616E+00   2.829425E+00   2.830451E+00   2.830561E+00   2.830030E+00   2.829334E+00   2.828522E+00   2.827620E+00   2.826287E+00   2.824569E+00   2.823129E+00   2.822006E+00   2.821369E+00   2.821105E+00   2.820964E+00   2.820922E+00   2.820930E+00   2.821475E+00   2.822235E+00   2.823175E+00   2.824333E+00   2.826136E+00   2.827970E+00   2.829918E+00   2.832125E+00   2.834213E+00   2.836670E+00   2.839348E+00   2.842541E+00   2.845690E+00   2.848934E+00   2.851872E+00   2.853971E+00   2.855522E+00   2.856077E+00   2.855769E+00   2.855148E+00   2.854366E+00   2.853145E+00   2.851573E+00   2.849618E+00   2.847819E+00   2.845966E+00   2.844384E+00   2.843235E+00   2.843000E+00   2.843581E+00   2.845192E+00   2.847284E+00   2.849773E+00   2.852273E+00   2.854717E+00   2.857097E+00   2.859149E+00   2.860646E+00   2.861840E+00   2.862155E+00   2.861475E+00   2.859512E+00   2.856595E+00   2.852667E+00   2.848372E+00   2.843991E+00   2.839711E+00   2.835431E+00   2.831226E+00   2.826946E+00   2.822848E+00   2.819017E+00   2.815428E+00   2.812346E+00   2.809614E+00   2.807470E+00   2.805845E+00   2.804927E+00   2.804940E+00   2.806003E+00   2.807921E+00   2.810470E+00   2.813494E+00   2.816950E+00   2.820805E+00   2.824716E+00   2.828305E+00   2.831546E+00   2.834333E+00   2.837045E+00   2.839066E+00   2.840810E+00   2.841999E+00   2.842720E+00   2.842773E+00   2.842394E+00   2.841640E+00   2.840990E+00   2.840462E+00   2.840296E+00   2.840656E+00   2.841322E+00   2.842126E+00   2.842692E+00   2.842723E+00   2.842517E+00   2.842121E+00   2.841465E+00   2.840927E+00   2.840531E+00   2.840356E+00
   2.840583E+00   2.840618E+00   2.840200E+00   2.839429E+00   2.838111E+00   2.836812E+00   2.835526E+00   2.834709E+00   2.834009E+00   2.833176E+00   2.832109E+00   2.830697E+00   2.828936E+00   2.827277E+00   2.825506E+00   2.823830E+00   2.822308E+00   2.821592E+00   2.821603E+00   2.822583E+00   2.823979E+00   2.825863E+00   2.827781E+00   2.829996E+00   2.832307E+00   2.834474E+00   2.836833E+00   2.839312E+00   2.841523E+00   2.843298E+00   2.844533E+00   2.845136E+00   2.845506E+00   2.845164E+00   2.843964E+00   2.842151E+00   2.839523E+00   2.836019E+00   2.832276E+00   2.828637E+00   2.825625E+00   2.822990E+00   2.820556E+00   2.818408E+00   2.816150E+00   2.813764E+00   2.811655E+00   2.809746E+00   2.808546E+00   2.807968E+00   2.808056E+00   2.808578E+00   2.809164E+00   2.809427E+00   2.809118E+00   2.808867E+00   2.808834E+00   2.809342E+00   2.810892E+00   2.813497E+00   2.817104E+00   2.821237E+00   2.825556E+00   2.829084E+00   2.831738E+00   2.833152E+00   2.833430E+00   2.832952E+00   2.831681E+00   2.829911E+00   2.828075E+00   2.826055E+00   2.824236E+00   2.822600E+00   2.821437E+00   2.820802E+00   2.820358E+00   2.820284E+00   2.820452E+00   2.820408E+00   2.820304E+00   2.819854E+00   2.819143E+00   2.818443E+00   2.817703E+00   2.817026E+00   2.816388E+00   2.816080E+00   2.816403E+00   2.817535E+00   2.819444E+00   2.821886E+00   2.824483E+00   2.826633E+00   2.828219E+00   2.829041E+00   2.829480E+00   2.829562E+00   2.829512E+00   2.829020E+00   2.828032E+00   2.826859E+00   2.825708E+00   2.824911E+00   2.824447E+00   2.824265E+00   2.824337E+00   2.824284E+00   2.824311E+00   2.824402E+00   2.824947E+00   2.825762E+00   2.827118E+00   2.828648E+00   2.830239E+00   2.831723E+00   2.833078E+00   2.834587E+00   2.836442E+00   2.838809E+00   2.841642E+00   2.844707E+00   2.847935E+00   2.850782E+00   2.852957E+00   2.854106E+00   2.854172E+00   2.853521E+00   2.852872E+00   2.852041E+00   2.851255E+00   2.850074E+00   2.848716E+00   2.847106E+00   2.845205E+00   2.843364E+00   2.841848E+00   2.841232E+00   2.841803E+00   2.843306E+00   2.845477E+00   2.848370E+00   2.851161E+00   2.853801E+00   2.856261E+00   2.858450E+00   2.860065E+00   2.861247E+00   2.861726E+00   2.861260E+00   2.859676E+00   2.856889E+00   2.852933E+00   2.848724E+00   2.844365E+00   2.839901E+00   2.835475E+00   2.831002E+00   2.826902E+00   2.822967E+00   2.819266E+00   2.815771E+00   2.812540E+00   2.809541E+00   2.807083E+00   2.805191E+00   2.804229E+00   2.804021E+00   2.805053E+00   2.806878E+00   2.809498E+00   2.812684E+00   2.816300E+00   2.820200E+00   2.824054E+00   2.827675E+00   2.830963E+00   2.833934E+00   2.836330E+00   2.838507E+00   2.839847E+00   2.840957E+00   2.841458E+00   2.841517E+00   2.841032E+00   2.840484E+00   2.839883E+00   2.839314E+00   2.839182E+00   2.839603E+00   2.840272E+00   2.840818E+00   2.841127E+00   2.841209E+00   2.841065E+00   2.840964E+00   2.840963E+00   2.840855E+00   2.840686E+00   2.840527E+00
   2.841404E+00   2.842221E+00   2.842359E+00   2.841616E+00   2.840753E+00   2.839355E+00   2.838321E+00   2.837474E+00   2.836874E+00   2.836027E+00   2.834717E+00   2.833004E+00   2.831007E+00   2.829151E+00   2.827390E+00   2.825739E+00   2.824295E+00   2.823230E+00   2.823467E+00   2.824412E+00   2.826093E+00   2.828214E+00   2.830118E+00   2.832276E+00   2.834273E+00   2.836338E+00   2.838442E+00   2.840313E+00   2.842154E+00   2.843881E+00   2.845330E+00   2.846191E+00   2.846485E+00   2.846426E+00   2.845718E+00   2.844155E+00   2.841604E+00   2.838059E+00   2.833876E+00   2.829667E+00   2.826012E+00   2.822731E+00   2.819873E+00   2.817313E+00   2.814768E+00   2.812584E+00   2.810588E+00   2.809451E+00   2.808974E+00   2.809032E+00   2.809758E+00   2.810929E+00   2.811967E+00   2.812736E+00   2.813038E+00   2.813175E+00   2.813384E+00   2.814051E+00   2.815845E+00   2.818681E+00   2.822355E+00   2.826659E+00   2.830947E+00   2.834603E+00   2.837145E+00   2.838483E+00   2.838674E+00   2.837972E+00   2.836494E+00   2.834552E+00   2.832176E+00   2.829858E+00   2.827610E+00   2.825735E+00   2.824080E+00   2.822744E+00   2.821797E+00   2.821292E+00   2.821039E+00   2.820773E+00   2.820264E+00   2.819590E+00   2.818814E+00   2.818225E+00   2.817469E+00   2.816484E+00   2.815581E+00   2.814885E+00   2.814955E+00   2.815974E+00   2.817828E+00   2.819990E+00   2.822565E+00   2.824862E+00   2.826901E+00   2.828630E+00   2.829968E+00   2.830783E+00   2.831195E+00   2.831069E+00   2.830492E+00   2.829680E+00   2.828797E+00   2.828085E+00   2.827764E+00   2.827737E+00   2.827780E+00   2.827813E+00   2.827795E+00   2.827756E+00   2.827990E+00   2.828655E+00   2.829855E+00   2.831235E+00   2.832389E+00   2.833610E+00   2.834406E+00   2.835276E+00   2.836462E+00   2.838095E+00   2.840398E+00   2.842991E+00   2.845811E+00   2.848362E+00   2.850096E+00   2.850751E+00   2.850572E+00   2.849883E+00   2.849112E+00   2.848628E+00   2.848287E+00   2.848025E+00   2.847243E+00   2.845885E+00   2.844272E+00   2.842228E+00   2.840308E+00   2.839126E+00   2.839301E+00   2.840652E+00   2.842969E+00   2.846004E+00   2.849092E+00   2.851874E+00   2.854143E+00   2.856134E+00   2.857794E+00   2.859080E+00   2.859866E+00   2.859760E+00   2.858447E+00   2.855947E+00   2.852625E+00   2.848814E+00   2.844545E+00   2.840154E+00   2.835547E+00   2.831278E+00   2.827323E+00   2.823738E+00   2.820475E+00   2.817112E+00   2.813981E+00   2.811014E+00   2.808522E+00   2.806537E+00   2.805522E+00   2.805230E+00   2.805999E+00   2.807704E+00   2.810203E+00   2.813482E+00   2.817143E+00   2.820888E+00   2.824325E+00   2.827626E+00   2.830441E+00   2.832837E+00   2.835025E+00   2.836724E+00   2.837964E+00   2.838903E+00   2.839375E+00   2.839409E+00   2.839095E+00   2.838516E+00   2.837886E+00   2.837297E+00   2.837146E+00   2.837506E+00   2.837775E+00   2.838116E+00   2.838362E+00   2.838412E+00   2.838486E+00   2.838692E+00   2.839105E+00   2.839515E+00   2.839926E+00   2.840171E+00
   2.842305E+00   2.843970E+00   2.844556E+00   2.844444E+00   2.843440E+00   2.842283E+00   2.841185E+00   2.840451E+00   2.839634E+00   2.838434E+00   2.836602E+00   2.834538E+00   2.832359E+00   2.830379E+00   2.828697E+00   2.827311E+00   2.825859E+00   2.825155E+00   2.825246E+00   2.826223E+00   2.827871E+00   2.830076E+00   2.832149E+00   2.834197E+00   2.836145E+00   2.838065E+00   2.839759E+00   2.841505E+00   2.843303E+00   2.845046E+00   2.846585E+00   2.847777E+00   2.848392E+00   2.848529E+00   2.847935E+00   2.846478E+00   2.844171E+00   2.840841E+00   2.836620E+00   2.831985E+00   2.827566E+00   2.823760E+00   2.820391E+00   2.817376E+00   2.814975E+00   2.812867E+00   2.811499E+00   2.810621E+00   2.810687E+00   2.811402E+00   2.812654E+00   2.813936E+00   2.815009E+00   2.815924E+00   2.816414E+00   2.816720E+00   2.817157E+00   2.818349E+00   2.820466E+00   2.823569E+00   2.827694E+00   2.832158E+00   2.836666E+00   2.840412E+00   2.842960E+00   2.844041E+00   2.844153E+00   2.843438E+00   2.841942E+00   2.839840E+00   2.837514E+00   2.835165E+00   2.832627E+00   2.830323E+00   2.828211E+00   2.826344E+00   2.825067E+00   2.823885E+00   2.823082E+00   2.822328E+00   2.821633E+00   2.820696E+00   2.819882E+00   2.819115E+00   2.818319E+00   2.817306E+00   2.816262E+00   2.815624E+00   2.815633E+00   2.816654E+00   2.818320E+00   2.820430E+00   2.822557E+00   2.824824E+00   2.827075E+00   2.829147E+00   2.831034E+00   2.832220E+00   2.832847E+00   2.832903E+00   2.832351E+00   2.831689E+00   2.830857E+00   2.830075E+00   2.829561E+00   2.829419E+00   2.829529E+00   2.829577E+00   2.829695E+00   2.829840E+00   2.830176E+00   2.830799E+00   2.831981E+00   2.833217E+00   2.834174E+00   2.834821E+00   2.835225E+00   2.835454E+00   2.835978E+00   2.836914E+00   2.838413E+00   2.840283E+00   2.842444E+00   2.844435E+00   2.845787E+00   2.846324E+00   2.846127E+00   2.845628E+00   2.845227E+00   2.844965E+00   2.845288E+00   2.845593E+00   2.845461E+00   2.844539E+00   2.843071E+00   2.841058E+00   2.839142E+00   2.837734E+00   2.837598E+00   2.838461E+00   2.840579E+00   2.843606E+00   2.846805E+00   2.849598E+00   2.851749E+00   2.853476E+00   2.854941E+00   2.856258E+00   2.857117E+00   2.857348E+00   2.856639E+00   2.854834E+00   2.852129E+00   2.848581E+00   2.844511E+00   2.840036E+00   2.835719E+00   2.831535E+00   2.827936E+00   2.824868E+00   2.821995E+00   2.818918E+00   2.815968E+00   2.813160E+00   2.810612E+00   2.808730E+00   2.807493E+00   2.807363E+00   2.808115E+00   2.809715E+00   2.811875E+00   2.814923E+00   2.818311E+00   2.821549E+00   2.824475E+00   2.826977E+00   2.829098E+00   2.830943E+00   2.832604E+00   2.833836E+00   2.835092E+00   2.836200E+00   2.836805E+00   2.836976E+00   2.836690E+00   2.836070E+00   2.835390E+00   2.834620E+00   2.834272E+00   2.834199E+00   2.834446E+00   2.834597E+00   2.834885E+00   2.834979E+00   2.835344E+00   2.835832E+00   2.836418E+00   2.837474E+00   2.838492E+00   2.839544E+00
   2.843192E+00   2.845448E+00   2.846894E+00   2.847134E+00   2.846717E+00   2.845567E+00   2.844740E+00   2.843895E+00   2.842705E+00   2.840862E+00   2.838433E+00   2.835879E+00   2.833403E+00   2.831158E+00   2.829581E+00   2.828395E+00   2.827459E+00   2.826848E+00   2.826830E+00   2.827651E+00   2.829071E+00   2.831127E+00   2.833488E+00   2.835532E+00   2.837466E+00   2.839164E+00   2.840836E+00   2.842688E+00   2.844786E+00   2.846546E+00   2.848055E+00   2.849186E+00   2.850028E+00   2.850160E+00   2.849611E+00   2.848204E+00   2.846112E+00   2.843209E+00   2.839378E+00   2.834877E+00   2.830260E+00   2.825979E+00   2.822168E+00   2.819051E+00   2.816399E+00   2.814474E+00   2.813235E+00   2.812862E+00   2.813251E+00   2.814128E+00   2.815342E+00   2.816575E+00   2.817800E+00   2.818491E+00   2.818964E+00   2.819289E+00   2.820057E+00   2.821662E+00   2.824237E+00   2.827932E+00   2.832428E+00   2.837319E+00   2.841711E+00   2.845382E+00   2.847815E+00   2.848916E+00   2.848942E+00   2.848251E+00   2.846852E+00   2.844975E+00   2.843031E+00   2.840761E+00   2.838252E+00   2.835776E+00   2.833077E+00   2.830783E+00   2.828826E+00   2.827110E+00   2.825572E+00   2.824258E+00   2.823286E+00   2.822209E+00   2.821287E+00   2.820579E+00   2.819689E+00   2.819016E+00   2.818361E+00   2.818052E+00   2.818363E+00   2.819256E+00   2.821062E+00   2.823023E+00   2.825181E+00   2.827423E+00   2.829321E+00   2.830862E+00   2.832372E+00   2.833656E+00   2.834028E+00   2.834111E+00   2.833463E+00   2.832742E+00   2.831854E+00   2.830933E+00   2.830153E+00   2.829664E+00   2.829397E+00   2.829508E+00   2.829684E+00   2.830174E+00   2.830908E+00   2.831782E+00   2.832824E+00   2.833653E+00   2.834250E+00   2.834645E+00   2.834769E+00   2.834718E+00   2.834548E+00   2.834697E+00   2.835286E+00   2.836374E+00   2.837779E+00   2.839111E+00   2.840097E+00   2.840633E+00   2.840721E+00   2.840790E+00   2.840909E+00   2.841290E+00   2.841981E+00   2.842849E+00   2.843105E+00   2.842757E+00   2.841556E+00   2.839978E+00   2.838146E+00   2.836869E+00   2.836492E+00   2.837294E+00   2.839033E+00   2.841670E+00   2.844502E+00   2.847061E+00   2.848949E+00   2.850634E+00   2.852029E+00   2.853441E+00   2.854362E+00   2.854738E+00   2.854245E+00   2.852875E+00   2.850549E+00   2.847584E+00   2.844000E+00   2.840023E+00   2.836105E+00   2.832218E+00   2.828756E+00   2.825894E+00   2.823197E+00   2.820501E+00   2.817668E+00   2.815209E+00   2.813036E+00   2.811366E+00   2.810455E+00   2.810312E+00   2.811172E+00   2.812485E+00   2.814490E+00   2.816919E+00   2.819648E+00   2.822309E+00   2.824606E+00   2.826264E+00   2.827689E+00   2.829001E+00   2.830125E+00   2.831070E+00   2.832121E+00   2.833138E+00   2.833981E+00   2.834172E+00   2.834000E+00   2.833370E+00   2.832573E+00   2.831809E+00   2.831246E+00   2.831033E+00   2.830963E+00   2.831159E+00   2.831177E+00   2.831503E+00   2.832158E+00   2.832999E+00   2.834080E+00   2.835535E+00   2.837218E+00   2.838718E+00