# BAS6 package for  MODFLOW-2005, generated by Flopy.
 FREE
INTERNAL               1   (100I10) -1 #ibound layer 1                
         0         0         0         0         0         0         0         0         0         0         0         0         0         0         0         0         0         0         0         0         0         0         0         0         0         0         0         0         0         0         0         0         0         0         0         0         0         0         0         0         0         0         0         0         0         0         0         0         0         0         0         0         0         0         0         0         0         0         0         0         0         0         0         0         0         0         0         0         0         0         0         0         0         0         0         0         0         0         0         0         0         0         0         0         0         0         0         0         0         0         0         0         0         0         0         0         0         0         0         0
         0         0         0         0         0         0         0         0         0         0         0         0         0         0         0         0         0         0         0         0         0         0         0         0         0         0         0         0         0         0         0         0         0         0         0         0         0         0         0         0         0         0         0         0         0         0         0         0         0         0         0         0         0         0         0         0         0         0         0         0         0         0         0         0         0         0         0         0         0         0         0         0         0         0         0         0         0         0         0         0         0         0         0         0         0         0         0         0         0         0         0         0         0         0         0         0         0         0         0         0
         0         0         0         0         0         0         0         0         0         0         0         0         0         0         0         0         0         0         0         0         0         0         0         0         0         0         0         0         0         0         0         0         0         0         0         0         0         0         0         0         0         0         0         0         0         0         0         0         0         0         0         0         0         0         0         0         0         0         0         0         0         0         0         0         0         0         0         0         0         0         0         0         0         0         0         0         0         0         0         0         0         0         0         0         0         0         0         0         0         0         0         0         0         0         0         0         0         0         0         0
         0         0         0         0         0         0         0         0         0         0         0         0         0         0         0         0         0         0         0         0         0         0         0         0         0         0         0         0         0         0         0         0         0         0         0         0         0         0         0         0         0         0         0         0         0         0         0         0         0         0         0         0         0         0         0         0         0         0         0        -5         0         0         0         0         0         0         0         0         0         0         0         0         0         0         0         0         0         0         0         0         0         0         0         0         0         0         0         0         0         0         0         0         0         0         0         0         0         0         0         0
         0         0         0         0         0         0         0         0         0         0         0         0         0         0         0         0         0         0         0         0         0         0         0         0         0         0         0         0         0         0         0         0         0         0         0         0         0         0         0         0         0         0         0         0         0         0         0         0         0         0         0         0         0         0         0         0         0         0        -5        -4         0         0         0         0         0         0         0         0         0         0         0         0         0         0         0         0         0         0         0         0         0         0         0         0         0         0         0         0         0         0         0         0         0         0         0         0         0         0         0         0
         0         0         0         0         0         0         0         0         0         0         0         0         0         0         0         0         0         0         0         0         0         0         0         0         0         0         0         0         0         0         0         0         0         0         0         0         0         0         0         0         0         0         0         0         0         0         0         0         0         0         0         0         0         0         0         0         0        -5         1        -4         0         0         0         0         0         0         0         0         0         0         0         0         0         0         0         0         0         0         0         0         0         0         0         0         0         0         0         0         0         0         0         0         0         0         0         0         0         0         0         0
         0         0         0         0         0         0         0         0         0         0         0         0         0         0         0         0         0         0         0         0         0         0         0         0         0         0         0         0         0         0         0         0         0         0         0         0         0         0         0         0         0         0         0         0         0         0         0         0         0         0         0         0         0         0         0        -5        -5        -4         1        -5         0         0         0         0         0         0         0         0         0         0         0         0         0         0         0         0         0         0         0         0         0         0         0         0         0         0         0         0         0         0         0         0         0         0         0         0         0         0         0         0
         0         0         0         0         0         0         0         0         0         0         0         0         0         0         0         0         0         0         0         0         0         0         0         0         0         0         0         0         0         0         0         0         0         0         0         0         0         0         0         0         0         0         0         0         0         0         0         0         0         0         0         0         0         0        -5        -5        -4         1        -4        -5         0        -5        -5        -5         0         0         0         0         0         0         0         0         0         0         0         0         0         0         0         0         0         0         0         0         0         0         0         0         0        -5         0         0         0        -5        -4         0         0         0         0         0
         0         0         0         0         0         0         0         0         0         0         0         0         0         0         0         0         0         0         0         0         0         0         0         0         0         0         0         0         0         0         0         0         0         0         0         0         0         0         0         0         0         0         0         0         0         0         0         0         0         0         0         0         0        -5        -4        -4         1         1        -5         0        -5        -4        -4        -5         0        -5         0         0         0        -4         0        -4         0        -5         0         0         0         0         0         0         0         0         0         0         0         0         0         0         0        -4        -4        -5        -5        -4        -5         0         0         0         0         0
         0         0         0         0         0         0         0         0         0         0         0         0         0         0         0         0         0         0         0         0         0         0         0         0         0         0         0         0         0         0         0         0         0         0         0         0         0         0         0         0         0         0         0         0         0         0         0         0         0         0         0         0        -5        -5         1         1         1         1        -5        -5        -4         1         1        -5        -5        -4         0        -5        -4        -4        -4        -4        -5        -4        -5         0         0         0         0         0         0         0         0         0         0         0         0        -5        -5         1         1         1         1        -4         0         0         0         0         0         0
         0         0         0         0         0         0         0         0         0         0         0         0         0         0         0         0         0         0         0         0         0         0         0         0         0         0         0         0         0         0         0         0         0         0         0         0         0         0         0         0         0         0         0         0         0         0         0         0         0         0         0         0        -4        -5        -4         1         1         1         1        -4         1         1         1        -5        -4        -5         0        -5        -5        -4         1         1        -4        -4         0         0         0        -5        -5         0         0         0         0         0         0         0         0        -4        -4         1         1         1         1        -4         0         0         0         0         0         0
         0         0         0         0         0         0         0         0         0         0         0         0         0         0         0         0         0         0         0         0         0         0         0         0         0         0         0         0         0         0         0         0         0         0         0         0         0         0         0         0         0         0         0         0         0         0         0         0         0        -5        -5        -4        -4        -5        -4         1         1         1         1         1         1         1         1         1         1        -5         0        -5        -4         1         1         1        -4         0         0         0        -5        -4        -5        -5        -5        -5        -5         0         0         0        -5         1         1         1         1         1         1        -4         0         0         0         0         0         0
         0         0         0         0         0         0         0         0         0         0         0         0         0         0         0         0         0         0         0         0         0         0         0         0         0         0         0         0         0         0         0         0         0         0         0         0         0         0         0         0         0         0         0         0         0         0         0         0         0        -5         1         1         1         1         1         1         1         1         1         1         1         1         1         1         1        -5        -4        -4         1         1         1         1        -5         0         0        -5        -4         1        -4        -4        -5        -4        -5         0         0         0        -5         1         1         1         1         1         1        -4         0         0         0         0         0         0
         0         0         0         0         0         0         0         0         0         0         0         0         0         0         0         0         0         0         0         0         0         0         0         0         0         0         0         0         0         0         0         0         0         0         0         0         0         0         0         0         0         0         0         0         0         0         0         0         0        -5         1         1         1         1         1         1         1         1         1         1         1         1         1         1         1        -5        -4         1         1         1         1         1        -4        -5        -4        -4         1         1         1         1        -5         1         1        -4        -5        -5        -5         1         1         1         1         1         1         1        -5         0         0         0         0         0
         0         0         0         0         0         0         0         0         0         0         0         0         0         0         0         0         0         0         0         0         0         0         0         0         0         0         0         0         0         0         0         0         0         0         0         0         0         0         0         0         0         0         0         0         0         0         0        -5        -5        -4         1         1         1         1         1         1         1         1         1         1         1         1         1         1         1         1         1         1         1         1         1         1         1         1         1         1         1         1         1         1         1         1         1         1         1        -5        -5        -4         1         1         1         1         1         1        -5         0         0         0         0         0
         0         0         0         0         0         0         0         0         0         0         0         0         0         0         0         0         0         0         0         0         0         0         0         0         0         0         0         0         0         0         0         0         0         0         0         0         0         0         0         0         0         0         0         0         0         0        -4        -5        -5        -4         1         1         1         1         1         1         1         1         1         1         1         1         1         1         1         1         1         1         1         1         1         1         1         1         1         1         1         1         1         1         1         1         1         1         1        -5        -4         1         1         1         1         1         1        -4        -5         0         0         0         0         0
         0         0         0         0         0         0         0         0         0         0         0         0         0         0         0         0         0         0         0         0         0         0         0         0         0         0         0         0         0         0         0         0         0         0         0         0         0         0         0         0         0         0         0         0         0         0        -5         1         1         1         1         1         1         1         1         1         1         1         1         1         1         1         1         1         1         1         1         1         1         1         1         1         1         1         1         1         1         1         1         1         1         1         1         1         1         1         1         1         1         1         1         1         1        -4         0         0         0         0         0         0
         0         0         0         0         0         0         0         0         0         0         0         0         0         0         0         0         0         0         0         0         0         0         0         0         0         0         0         0         0         0         0         0         0         0         0         0         0         0         0         0         0         0         0         0         0        -5        -4         1         1         1         1         1         1         1         1         1         1         1         1         1         1         1         1         1         1         1         1         1         1         1         1         1         1         1         1         1         1         1         1         1         1         1         1         1         1         1         1         1         1         1         1         1         1        -4         0         0         0         0         0         0
         0         0         0         0         0         0         0         0         0         0         0         0         0         0         0         0         0         0         0         0         0         0         0         0         0         0         0         0         0         0         0         0         0         0         0         0         0         0         0         0         0         0         0         0         0        -4         1         1         1         1         1         1         1         1         1         1        -4        -5        -4        -4         1         1         1         1         1         1         1         1         1         1         1         1         1         1         1         1         1        -4        -4         1         1         1         1         1         1         1         1         1         1         1         1         1         1        -4         0         0         0         0         0         0
         0         0         0         0         0         0         0         0         0         0         0         0         0         0         0         0         0         0         0         0         0         0         0         0         0         0         0         0         0         0         0         0         0         0         0         0         0         0         0         0         0         0         0         0        -5        -4         1         1         1         1        -4        -4         1         1         1        -5         0         0         0         0        -4        -4         1         1         1         1         1         1         1         1         1         1         1         1         1         1        -4        -5        -5        -5        -4         1         1         1         1         1         1         1         1         1         1         1        -4        -4         0         0         0         0         0         0
         0         0         0         0         0         0         0         0         0         0         0         0         0         0         0         0         0         0         0         0         0         0         0         0         0         0         0         0         0         0         0         0         0         0         0         0         0         0         0         0         0         0         0        -5        -4         1         1         1         1        -4        -4        -5        -5        -4        -5        -5         0         0         0         0         0        -5         1         1         1         1         1         1         1         1         1         1         1         1        -4        -5         0         0         0        -5        -4         1         1         1         1         1         1         1         1         1        -5        -5        -5         0         0         0         0         0         0         0
         0         0         0         0         0         0         0         0         0         0         0         0         0         0         0         0         0         0         0         0         0         0         0         0         0         0         0         0         0         0         0         0         0         0         0         0         0         0         0         0         0         0        -5        -4         1         1         1         1         1        -4        -4        -4        -5         0         0         0         0         0         0         0         0        -5         1         1         1         1         1         1         1         1         1         1         1         1        -4         0         0         0         0         0        -5         1         1         1         1         1         1        -5        -4        -4         0         0         0         0         0         0         0         0         0         0
         0         0         0         0         0         0         0         0         0         0         0         0         0         0         0         0         0         0         0         0         0         0         0         0         0         0         0         0         0         0         0         0         0         0         0         0         0         0         0         0         0         0        -5        -4         1         1         1         1         1         1         1         1        -4        -5        -5        -5        -5         0         0         0         0        -4         1         1         1         1         1         1         1         1         1         1         1        -4        -5         0         0         0         0         0         0        -4         1         1         1         1        -5         0        -5         0         0         0         0         0         0         0         0         0         0         0
         0         0         0         0         0         0         0         0         0         0         0         0         0         0         0         0         0         0         0         0         0         0         0         0         0         0         0         0         0         0         0         0         0         0         0         0         0         0         0         0         0         0         0        -4         1         1         1         1         1         1         1         1         1         1        -4         1        -5         0         0         0         0        -5         1         1         1         1         1         1         1         1         1         1         1        -5         0         0         0         0         0         0        -5        -4         1         1         1        -4        -5         0         0         0         0         0         0         0         0         0         0         0         0         0
         0         0         0         0         0         0         0         0         0         0         0         0         0         0         0         0         0         0         0         0         0         0         0         0         0         0         0         0         0         0         0         0         0         0         0         0         0         0         0         0         0         0        -5        -4         1         1         1         1         1         1         1         1         1         1         1         1        -5         0         0         0         0        -5         1         1         1         1         1         1         1         1        -4        -4        -4        -5         0         0         0         0         0        -5        -4         1         1        -4        -5        -5         0         0         0         0         0         0         0         0         0         0         0         0         0         0
         0         0         0         0         0         0         0         0         0         0         0         0         0         0         0         0         0         0         0         0         0         0         0         0         0         0         0         0         0         0         0         0         0         0         0         0         0         0         0         0        -4         0        -5        -4         1         1         1         1         1         1         1         1         1         1         1         1        -5         0         0         0         0        -5         1         1         1         1         1         1         1        -4         0        -5        -5         0         0         0         0         0         0         0        -5        -4        -4        -5         0         0         0         0         0         0         0         0         0         0         0         0         0         0         0         0
         0         0         0         0         0         0         0         0         0         0         0         0         0         0         0         0         0         0         0         0         0         0         0         0         0         0         0         0         0         0         0         0         0         0         0         0         0         0         0        -5        -4        -5         0        -5         1         1         1         1         1         1         1         1         1         1         1         1        -4        -4        -5         0         0        -5         1         1         1         1         1         1         1        -4         0         0         0         0         0         0         0         0         0         0         0        -5        -5         0         0         0         0         0         0         0         0         0         0         0         0         0         0         0         0         0
         0         0         0         0         0         0         0         0         0         0         0         0         0         0         0         0         0         0         0         0         0         0         0         0         0         0         0         0         0         0         0         0         0         0         0         0         0         0        -5        -4         1         1        -4        -5         1         1         1         1         1         1         1         1         1         1         1         1         1         1        -5         0         0        -5        -4         1         1         1         1        -4        -4        -4         0         0         0         0         0         0         0         0         0         0         0         0         0         0         0         0         0         0         0         0         0         0         0         0         0         0         0         0         0         0
         0         0         0         0         0         0         0         0         0         0         0         0         0         0         0         0         0         0         0         0         0         0         0        -4        -5         0         0         0         0        -5        -4        -5         0         0         0         0         0        -5        -4         1         1         1        -4        -4         1         1         1         1         1         1         1         1         1         1         1         1        -4        -5         0         0         0         0        -4         1         1        -4        -4        -5         0         0         0         0         0         0         0         0         0         0         0         0         0         0         0         0         0         0         0         0         0         0         0         0         0         0         0         0         0         0         0         0