# DIS package for  MODFLOW-2005, generated by Flopy.
         1        75       100         1         4         2
  0
CONSTANT    3.390000E+02                           #delr                          
CONSTANT    2.200000E+02                           #delc                          
CONSTANT    1.000000E+03                           #model_top                     
CONSTANT   -3.000000E+02                           #botm layer 1                  
      1.000000             1  1.000000  SS 
