# LPF package for  MODFLOW-2005, generated by Flopy.
         0    -1E+30         0  
         0
         0
   1.000000E+00
         0
         0
INTERNAL               1 (200E15.6) -1 #hk layer 1                    
   2.825769E+00   2.825732E+00   2.825681E+00   2.825611E+00   2.825556E+00   2.825512E+00   2.825480E+00   2.825448E+00   2.825446E+00   2.825414E+00   2.825388E+00   2.825344E+00   2.825296E+00   2.825238E+00   2.825170E+00   2.825120E+00   2.825094E+00   2.825097E+00   2.825112E+00   2.825149E+00   2.825201E+00   2.825270E+00   2.825350E+00   2.825457E+00   2.825542E+00   2.825624E+00   2.825701E+00   2.825784E+00   2.825862E+00   2.825931E+00   2.825976E+00   2.826001E+00   2.825997E+00   2.825945E+00   2.825885E+00   2.825804E+00   2.825734E+00   2.825661E+00   2.825608E+00   2.825561E+00   2.825516E+00   2.825476E+00   2.825428E+00   2.825354E+00   2.825279E+00   2.825212E+00   2.825151E+00   2.825078E+00   2.825014E+00   2.824945E+00   2.824862E+00   2.824779E+00   2.824704E+00   2.824625E+00   2.824567E+00   2.824504E+00   2.824467E+00   2.824457E+00   2.824508E+00   2.824605E+00   2.824715E+00   2.824844E+00   2.824983E+00   2.825107E+00   2.825197E+00   2.825269E+00   2.825314E+00   2.825361E+00   2.825391E+00   2.825401E+00   2.825389E+00   2.825383E+00   2.825393E+00   2.825422E+00   2.825464E+00   2.825481E+00   2.825501E+00   2.825487E+00   2.825444E+00   2.825395E+00   2.825355E+00   2.825300E+00   2.825258E+00   2.825228E+00   2.825204E+00   2.825194E+00   2.825207E+00   2.825245E+00   2.825292E+00   2.825379E+00   2.825478E+00   2.825572E+00   2.825657E+00   2.825707E+00   2.825704E+00   2.825658E+00   2.825591E+00   2.825509E+00   2.825434E+00   2.825347E+00   2.825264E+00   2.825178E+00   2.825100E+00   2.825063E+00   2.825038E+00   2.825025E+00   2.825036E+00   2.825041E+00   2.825075E+00   2.825091E+00   2.825103E+00   2.825102E+00   2.825114E+00   2.825150E+00   2.825184E+00   2.825251E+00   2.825361E+00   2.825499E+00   2.825653E+00   2.825809E+00   2.825936E+00   2.826062E+00   2.826159E+00   2.826238E+00   2.826305E+00   2.826347E+00   2.826403E+00   2.826432E+00   2.826429E+00   2.826416E+00   2.826377E+00   2.826332E+00   2.826285E+00   2.826225E+00   2.826154E+00   2.826108E+00   2.826044E+00   2.826009E+00   2.826001E+00   2.826034E+00   2.826082E+00   2.826136E+00   2.826200E+00   2.826252E+00   2.826310E+00   2.826367E+00   2.826426E+00   2.826499E+00   2.826537E+00   2.826528E+00   2.826457E+00   2.826347E+00   2.826201E+00   2.826072E+00   2.825942E+00   2.825819E+00   2.825715E+00   2.825610E+00   2.825510E+00   2.825393E+00   2.825290E+00   2.825149E+00   2.825021E+00   2.824917E+00   2.824825E+00   2.824759E+00   2.824711E+00   2.824682E+00   2.824687E+00   2.824744E+00   2.824845E+00   2.824967E+00   2.825108E+00   2.825254E+00   2.825378E+00   2.825485E+00   2.825576E+00   2.825672E+00   2.825775E+00   2.825866E+00   2.825957E+00   2.826035E+00   2.826099E+00   2.826133E+00   2.826143E+00   2.826106E+00   2.826040E+00   2.825951E+00   2.825874E+00   2.825824E+00   2.825810E+00   2.825827E+00   2.825848E+00   2.825872E+00   2.825876E+00   2.825875E+00   2.825867E+00   2.825827E+00   2.825810E+00   2.825798E+00
   2.825739E+00   2.825685E+00   2.825606E+00   2.825491E+00   2.825365E+00   2.825271E+00   2.825191E+00   2.825131E+00   2.825109E+00   2.825095E+00   2.825045E+00   2.824990E+00   2.824883E+00   2.824775E+00   2.824654E+00   2.824550E+00   2.824485E+00   2.824484E+00   2.824506E+00   2.824558E+00   2.824640E+00   2.824762E+00   2.824914E+00   2.825078E+00   2.825253E+00   2.825431E+00   2.825620E+00   2.825797E+00   2.825962E+00   2.826086E+00   2.826166E+00   2.826223E+00   2.826196E+00   2.826113E+00   2.825976E+00   2.825836E+00   2.825699E+00   2.825557E+00   2.825414E+00   2.825314E+00   2.825225E+00   2.825161E+00   2.825074E+00   2.824965E+00   2.824826E+00   2.824697E+00   2.824580E+00   2.824451E+00   2.824325E+00   2.824186E+00   2.824038E+00   2.823889E+00   2.823760E+00   2.823619E+00   2.823471E+00   2.823356E+00   2.823283E+00   2.823277E+00   2.823355E+00   2.823524E+00   2.823742E+00   2.824011E+00   2.824284E+00   2.824511E+00   2.824697E+00   2.824836E+00   2.824917E+00   2.824964E+00   2.824997E+00   2.824999E+00   2.824988E+00   2.824982E+00   2.824994E+00   2.825016E+00   2.825048E+00   2.825073E+00   2.825084E+00   2.825068E+00   2.825038E+00   2.824987E+00   2.824920E+00   2.824847E+00   2.824769E+00   2.824698E+00   2.824634E+00   2.824604E+00   2.824623E+00   2.824679E+00   2.824774E+00   2.824915E+00   2.825118E+00   2.825283E+00   2.825445E+00   2.825536E+00   2.825544E+00   2.825483E+00   2.825358E+00   2.825225E+00   2.825081E+00   2.824936E+00   2.824796E+00   2.824650E+00   2.824509E+00   2.824421E+00   2.824372E+00   2.824347E+00   2.824355E+00   2.824388E+00   2.824420E+00   2.824460E+00   2.824478E+00   2.824510E+00   2.824570E+00   2.824631E+00   2.824724E+00   2.824861E+00   2.825039E+00   2.825256E+00   2.825510E+00   2.825771E+00   2.826014E+00   2.826247E+00   2.826448E+00   2.826615E+00   2.826738E+00   2.826844E+00   2.826922E+00   2.826966E+00   2.826941E+00   2.826895E+00   2.826832E+00   2.826747E+00   2.826639E+00   2.826503E+00   2.826373E+00   2.826265E+00   2.826198E+00   2.826165E+00   2.826192E+00   2.826252E+00   2.826348E+00   2.826468E+00   2.826558E+00   2.826656E+00   2.826741E+00   2.826848E+00   2.826967E+00   2.827084E+00   2.827153E+00   2.827114E+00   2.826987E+00   2.826772E+00   2.826521E+00   2.826267E+00   2.826015E+00   2.825777E+00   2.825561E+00   2.825360E+00   2.825145E+00   2.824935E+00   2.824700E+00   2.824481E+00   2.824261E+00   2.824088E+00   2.823938E+00   2.823814E+00   2.823727E+00   2.823706E+00   2.823746E+00   2.823860E+00   2.824030E+00   2.824241E+00   2.824486E+00   2.824728E+00   2.824955E+00   2.825152E+00   2.825336E+00   2.825524E+00   2.825708E+00   2.825884E+00   2.826046E+00   2.826196E+00   2.826289E+00   2.826341E+00   2.826333E+00   2.826279E+00   2.826175E+00   2.826043E+00   2.825920E+00   2.825833E+00   2.825839E+00   2.825873E+00   2.825919E+00   2.825944E+00   2.825941E+00   2.825932E+00   2.825900E+00   2.825855E+00   2.825804E+00   2.825796E+00
   2.825737E+00   2.825654E+00   2.825549E+00   2.825415E+00   2.825282E+00   2.825124E+00   2.825003E+00   2.824918E+00   2.824878E+00   2.824835E+00   2.824790E+00   2.824702E+00   2.824599E+00   2.824459E+00   2.824313E+00   2.824182E+00   2.824096E+00   2.824070E+00   2.824088E+00   2.824148E+00   2.824235E+00   2.824383E+00   2.824573E+00   2.824798E+00   2.825020E+00   2.825265E+00   2.825539E+00   2.825804E+00   2.826034E+00   2.826203E+00   2.826322E+00   2.826368E+00   2.826335E+00   2.826227E+00   2.826078E+00   2.825864E+00   2.825654E+00   2.825429E+00   2.825244E+00   2.825091E+00   2.824974E+00   2.824861E+00   2.824761E+00   2.824629E+00   2.824450E+00   2.824236E+00   2.824058E+00   2.823861E+00   2.823698E+00   2.823542E+00   2.823388E+00   2.823223E+00   2.823086E+00   2.822912E+00   2.822754E+00   2.822619E+00   2.822520E+00   2.822500E+00   2.822595E+00   2.822811E+00   2.823112E+00   2.823462E+00   2.823812E+00   2.824130E+00   2.824374E+00   2.824543E+00   2.824643E+00   2.824699E+00   2.824706E+00   2.824698E+00   2.824658E+00   2.824634E+00   2.824613E+00   2.824612E+00   2.824618E+00   2.824616E+00   2.824617E+00   2.824610E+00   2.824601E+00   2.824571E+00   2.824510E+00   2.824438E+00   2.824359E+00   2.824259E+00   2.824197E+00   2.824166E+00   2.824174E+00   2.824226E+00   2.824325E+00   2.824507E+00   2.824732E+00   2.824982E+00   2.825179E+00   2.825320E+00   2.825332E+00   2.825255E+00   2.825122E+00   2.824964E+00   2.824812E+00   2.824643E+00   2.824463E+00   2.824299E+00   2.824143E+00   2.824012E+00   2.823936E+00   2.823888E+00   2.823877E+00   2.823908E+00   2.823956E+00   2.824001E+00   2.824044E+00   2.824097E+00   2.824200E+00   2.824321E+00   2.824456E+00   2.824646E+00   2.824869E+00   2.825129E+00   2.825444E+00   2.825762E+00   2.826066E+00   2.826376E+00   2.826656E+00   2.826887E+00   2.827064E+00   2.827175E+00   2.827268E+00   2.827298E+00   2.827286E+00   2.827218E+00   2.827111E+00   2.826974E+00   2.826810E+00   2.826647E+00   2.826487E+00   2.826360E+00   2.826267E+00   2.826258E+00   2.826301E+00   2.826409E+00   2.826548E+00   2.826684E+00   2.826828E+00   2.826962E+00   2.827106E+00   2.827247E+00   2.827414E+00   2.827536E+00   2.827579E+00   2.827508E+00   2.827334E+00   2.827060E+00   2.826730E+00   2.826395E+00   2.826063E+00   2.825747E+00   2.825439E+00   2.825134E+00   2.824813E+00   2.824496E+00   2.824185E+00   2.823864E+00   2.823611E+00   2.823399E+00   2.823227E+00   2.823094E+00   2.823022E+00   2.823018E+00   2.823081E+00   2.823225E+00   2.823444E+00   2.823700E+00   2.824000E+00   2.824309E+00   2.824619E+00   2.824888E+00   2.825143E+00   2.825383E+00   2.825627E+00   2.825862E+00   2.826057E+00   2.826210E+00   2.826329E+00   2.826370E+00   2.826351E+00   2.826267E+00   2.826151E+00   2.826046E+00   2.825942E+00   2.825890E+00   2.825894E+00   2.825952E+00   2.826021E+00   2.826040E+00   2.826027E+00   2.825979E+00   2.825931E+00   2.825884E+00   2.825847E+00   2.825818E+00
   2.825753E+00   2.825683E+00   2.825555E+00   2.825418E+00   2.825280E+00   2.825140E+00   2.824998E+00   2.824907E+00   2.824837E+00   2.824780E+00   2.824707E+00   2.824618E+00   2.824481E+00   2.824328E+00   2.824166E+00   2.824028E+00   2.823918E+00   2.823863E+00   2.823869E+00   2.823925E+00   2.824013E+00   2.824160E+00   2.824355E+00   2.824600E+00   2.824866E+00   2.825146E+00   2.825452E+00   2.825759E+00   2.826027E+00   2.826225E+00   2.826358E+00   2.826410E+00   2.826359E+00   2.826268E+00   2.826088E+00   2.825856E+00   2.825590E+00   2.825312E+00   2.825056E+00   2.824871E+00   2.824719E+00   2.824572E+00   2.824416E+00   2.824239E+00   2.824035E+00   2.823804E+00   2.823581E+00   2.823343E+00   2.823151E+00   2.822992E+00   2.822865E+00   2.822754E+00   2.822651E+00   2.822543E+00   2.822406E+00   2.822280E+00   2.822187E+00   2.822183E+00   2.822298E+00   2.822528E+00   2.822863E+00   2.823260E+00   2.823658E+00   2.824005E+00   2.824280E+00   2.824455E+00   2.824545E+00   2.824563E+00   2.824548E+00   2.824495E+00   2.824432E+00   2.824351E+00   2.824290E+00   2.824232E+00   2.824207E+00   2.824192E+00   2.824193E+00   2.824193E+00   2.824204E+00   2.824190E+00   2.824174E+00   2.824124E+00   2.824053E+00   2.823970E+00   2.823891E+00   2.823853E+00   2.823841E+00   2.823886E+00   2.823997E+00   2.824164E+00   2.824415E+00   2.824658E+00   2.824896E+00   2.825052E+00   2.825102E+00   2.825054E+00   2.824941E+00   2.824793E+00   2.824656E+00   2.824502E+00   2.824335E+00   2.824145E+00   2.823987E+00   2.823871E+00   2.823775E+00   2.823726E+00   2.823721E+00   2.823728E+00   2.823781E+00   2.823813E+00   2.823878E+00   2.823958E+00   2.824079E+00   2.824242E+00   2.824427E+00   2.824644E+00   2.824881E+00   2.825151E+00   2.825447E+00   2.825768E+00   2.826089E+00   2.826410E+00   2.826720E+00   2.826998E+00   2.827208E+00   2.827351E+00   2.827428E+00   2.827444E+00   2.827401E+00   2.827320E+00   2.827192E+00   2.827035E+00   2.826845E+00   2.826656E+00   2.826483E+00   2.826336E+00   2.826256E+00   2.826235E+00   2.826292E+00   2.826437E+00   2.826623E+00   2.826805E+00   2.826994E+00   2.827192E+00   2.827384E+00   2.827576E+00   2.827729E+00   2.827852E+00   2.827885E+00   2.827798E+00   2.827596E+00   2.827291E+00   2.826915E+00   2.826505E+00   2.826111E+00   2.825741E+00   2.825372E+00   2.824984E+00   2.824594E+00   2.824209E+00   2.823829E+00   2.823506E+00   2.823201E+00   2.822943E+00   2.822755E+00   2.822610E+00   2.822527E+00   2.822523E+00   2.822608E+00   2.822803E+00   2.823038E+00   2.823329E+00   2.823654E+00   2.824013E+00   2.824359E+00   2.824692E+00   2.824980E+00   2.825266E+00   2.825527E+00   2.825766E+00   2.825960E+00   2.826124E+00   2.826203E+00   2.826235E+00   2.826190E+00   2.826116E+00   2.826025E+00   2.825934E+00   2.825888E+00   2.825898E+00   2.825950E+00   2.826025E+00   2.826075E+00   2.826094E+00   2.826066E+00   2.826006E+00   2.825927E+00   2.825864E+00   2.825829E+00   2.825810E+00
   2.825790E+00   2.825738E+00   2.825641E+00   2.825526E+00   2.825395E+00   2.825258E+00   2.825134E+00   2.825032E+00   2.824967E+00   2.824883E+00   2.824798E+00   2.824671E+00   2.824530E+00   2.824362E+00   2.824195E+00   2.824033E+00   2.823898E+00   2.823820E+00   2.823833E+00   2.823885E+00   2.824004E+00   2.824173E+00   2.824357E+00   2.824595E+00   2.824856E+00   2.825135E+00   2.825415E+00   2.825695E+00   2.825952E+00   2.826156E+00   2.826285E+00   2.826334E+00   2.826337E+00   2.826256E+00   2.826104E+00   2.825880E+00   2.825626E+00   2.825286E+00   2.824975E+00   2.824690E+00   2.824470E+00   2.824277E+00   2.824088E+00   2.823883E+00   2.823650E+00   2.823413E+00   2.823185E+00   2.822954E+00   2.822755E+00   2.822622E+00   2.822562E+00   2.822539E+00   2.822535E+00   2.822481E+00   2.822401E+00   2.822304E+00   2.822254E+00   2.822278E+00   2.822418E+00   2.822659E+00   2.823015E+00   2.823436E+00   2.823851E+00   2.824212E+00   2.824487E+00   2.824650E+00   2.824715E+00   2.824704E+00   2.824631E+00   2.824522E+00   2.824385E+00   2.824250E+00   2.824108E+00   2.823997E+00   2.823930E+00   2.823894E+00   2.823878E+00   2.823896E+00   2.823914E+00   2.823926E+00   2.823930E+00   2.823891E+00   2.823817E+00   2.823728E+00   2.823658E+00   2.823604E+00   2.823577E+00   2.823606E+00   2.823684E+00   2.823832E+00   2.824050E+00   2.824310E+00   2.824545E+00   2.824726E+00   2.824827E+00   2.824836E+00   2.824781E+00   2.824711E+00   2.824629E+00   2.824540E+00   2.824407E+00   2.824236E+00   2.824094E+00   2.823983E+00   2.823922E+00   2.823898E+00   2.823885E+00   2.823882E+00   2.823884E+00   2.823940E+00   2.824017E+00   2.824113E+00   2.824230E+00   2.824413E+00   2.824598E+00   2.824795E+00   2.825018E+00   2.825229E+00   2.825477E+00   2.825747E+00   2.826068E+00   2.826384E+00   2.826709E+00   2.827003E+00   2.827212E+00   2.827366E+00   2.827421E+00   2.827389E+00   2.827325E+00   2.827246E+00   2.827123E+00   2.826965E+00   2.826769E+00   2.826589E+00   2.826404E+00   2.826246E+00   2.826131E+00   2.826107E+00   2.826166E+00   2.826328E+00   2.826538E+00   2.826787E+00   2.827037E+00   2.827280E+00   2.827516E+00   2.827718E+00   2.827864E+00   2.827980E+00   2.828007E+00   2.827936E+00   2.827737E+00   2.827444E+00   2.827049E+00   2.826619E+00   2.826180E+00   2.825751E+00   2.825323E+00   2.824901E+00   2.824471E+00   2.824059E+00   2.823673E+00   2.823311E+00   2.822999E+00   2.822721E+00   2.822502E+00   2.822334E+00   2.822238E+00   2.822235E+00   2.822340E+00   2.822531E+00   2.822787E+00   2.823091E+00   2.823440E+00   2.823830E+00   2.824227E+00   2.824592E+00   2.824922E+00   2.825206E+00   2.825483E+00   2.825691E+00   2.825869E+00   2.825992E+00   2.826066E+00   2.826072E+00   2.826034E+00   2.825957E+00   2.825891E+00   2.825836E+00   2.825817E+00   2.825852E+00   2.825917E+00   2.825997E+00   2.826053E+00   2.826056E+00   2.826036E+00   2.825997E+00   2.825933E+00   2.825880E+00   2.825841E+00   2.825825E+00
   2.825852E+00   2.825857E+00   2.825816E+00   2.825738E+00   2.825606E+00   2.825475E+00   2.825345E+00   2.825263E+00   2.825192E+00   2.825109E+00   2.825002E+00   2.824860E+00   2.824683E+00   2.824516E+00   2.824337E+00   2.824167E+00   2.824012E+00   2.823938E+00   2.823939E+00   2.824037E+00   2.824177E+00   2.824367E+00   2.824559E+00   2.824782E+00   2.825014E+00   2.825231E+00   2.825467E+00   2.825715E+00   2.825937E+00   2.826114E+00   2.826237E+00   2.826297E+00   2.826333E+00   2.826297E+00   2.826176E+00   2.825994E+00   2.825729E+00   2.825377E+00   2.825001E+00   2.824635E+00   2.824333E+00   2.824068E+00   2.823822E+00   2.823606E+00   2.823377E+00   2.823134E+00   2.822918E+00   2.822722E+00   2.822597E+00   2.822535E+00   2.822541E+00   2.822590E+00   2.822646E+00   2.822670E+00   2.822636E+00   2.822608E+00   2.822605E+00   2.822656E+00   2.822815E+00   2.823081E+00   2.823449E+00   2.823871E+00   2.824311E+00   2.824671E+00   2.824942E+00   2.825089E+00   2.825120E+00   2.825075E+00   2.824950E+00   2.824775E+00   2.824592E+00   2.824390E+00   2.824208E+00   2.824043E+00   2.823925E+00   2.823860E+00   2.823814E+00   2.823804E+00   2.823819E+00   2.823813E+00   2.823801E+00   2.823755E+00   2.823683E+00   2.823613E+00   2.823540E+00   2.823473E+00   2.823411E+00   2.823381E+00   2.823415E+00   2.823529E+00   2.823722E+00   2.823968E+00   2.824228E+00   2.824443E+00   2.824601E+00   2.824682E+00   2.824725E+00   2.824733E+00   2.824728E+00   2.824680E+00   2.824583E+00   2.824467E+00   2.824354E+00   2.824276E+00   2.824232E+00   2.824216E+00   2.824225E+00   2.824221E+00   2.824224E+00   2.824233E+00   2.824289E+00   2.824371E+00   2.824508E+00   2.824663E+00   2.824824E+00   2.824974E+00   2.825111E+00   2.825264E+00   2.825452E+00   2.825691E+00   2.825976E+00   2.826285E+00   2.826609E+00   2.826894E+00   2.827112E+00   2.827227E+00   2.827232E+00   2.827166E+00   2.827101E+00   2.827016E+00   2.826937E+00   2.826818E+00   2.826682E+00   2.826521E+00   2.826331E+00   2.826146E+00   2.825994E+00   2.825932E+00   2.825989E+00   2.826141E+00   2.826358E+00   2.826648E+00   2.826926E+00   2.827188E+00   2.827432E+00   2.827648E+00   2.827806E+00   2.827920E+00   2.827964E+00   2.827914E+00   2.827753E+00   2.827472E+00   2.827075E+00   2.826653E+00   2.826216E+00   2.825769E+00   2.825326E+00   2.824878E+00   2.824466E+00   2.824071E+00   2.823699E+00   2.823346E+00   2.823019E+00   2.822714E+00   2.822463E+00   2.822268E+00   2.822168E+00   2.822143E+00   2.822244E+00   2.822426E+00   2.822688E+00   2.823009E+00   2.823375E+00   2.823769E+00   2.824160E+00   2.824528E+00   2.824863E+00   2.825166E+00   2.825411E+00   2.825634E+00   2.825773E+00   2.825887E+00   2.825939E+00   2.825945E+00   2.825897E+00   2.825840E+00   2.825778E+00   2.825718E+00   2.825702E+00   2.825742E+00   2.825807E+00   2.825861E+00   2.825891E+00   2.825899E+00   2.825885E+00   2.825876E+00   2.825878E+00   2.825870E+00   2.825855E+00   2.825842E+00
   2.825934E+00   2.826018E+00   2.826033E+00   2.825959E+00   2.825872E+00   2.825731E+00   2.825627E+00   2.825542E+00   2.825482E+00   2.825398E+00   2.825266E+00   2.825094E+00   2.824893E+00   2.824706E+00   2.824528E+00   2.824360E+00   2.824213E+00   2.824104E+00   2.824127E+00   2.824222E+00   2.824391E+00   2.824605E+00   2.824796E+00   2.825013E+00   2.825213E+00   2.825420E+00   2.825630E+00   2.825817E+00   2.826001E+00   2.826174E+00   2.826318E+00   2.826403E+00   2.826431E+00   2.826424E+00   2.826351E+00   2.826194E+00   2.825937E+00   2.825580E+00   2.825160E+00   2.824736E+00   2.824369E+00   2.824039E+00   2.823750E+00   2.823492E+00   2.823234E+00   2.823012E+00   2.822808E+00   2.822690E+00   2.822639E+00   2.822642E+00   2.822712E+00   2.822827E+00   2.822928E+00   2.823003E+00   2.823031E+00   2.823043E+00   2.823064E+00   2.823132E+00   2.823315E+00   2.823605E+00   2.823979E+00   2.824418E+00   2.824854E+00   2.825227E+00   2.825488E+00   2.825627E+00   2.825650E+00   2.825583E+00   2.825438E+00   2.825245E+00   2.825007E+00   2.824775E+00   2.824549E+00   2.824360E+00   2.824193E+00   2.824056E+00   2.823959E+00   2.823906E+00   2.823878E+00   2.823849E+00   2.823797E+00   2.823728E+00   2.823650E+00   2.823592E+00   2.823517E+00   2.823419E+00   2.823330E+00   2.823260E+00   2.823268E+00   2.823371E+00   2.823558E+00   2.823775E+00   2.824033E+00   2.824262E+00   2.824466E+00   2.824638E+00   2.824772E+00   2.824854E+00   2.824897E+00   2.824886E+00   2.824830E+00   2.824750E+00   2.824664E+00   2.824595E+00   2.824565E+00   2.824564E+00   2.824569E+00   2.824573E+00   2.824572E+00   2.824568E+00   2.824591E+00   2.824658E+00   2.824780E+00   2.824919E+00   2.825036E+00   2.825160E+00   2.825241E+00   2.825330E+00   2.825450E+00   2.825616E+00   2.825849E+00   2.826111E+00   2.826395E+00   2.826652E+00   2.826826E+00   2.826892E+00   2.826874E+00   2.826805E+00   2.826727E+00   2.826678E+00   2.826643E+00   2.826616E+00   2.826537E+00   2.826401E+00   2.826238E+00   2.826033E+00   2.825840E+00   2.825720E+00   2.825738E+00   2.825873E+00   2.826105E+00   2.826409E+00   2.826717E+00   2.826994E+00   2.827218E+00   2.827415E+00   2.827577E+00   2.827702E+00   2.827777E+00   2.827763E+00   2.827629E+00   2.827377E+00   2.827043E+00   2.826661E+00   2.826234E+00   2.825794E+00   2.825332E+00   2.824904E+00   2.824507E+00   2.824148E+00   2.823820E+00   2.823481E+00   2.823165E+00   2.822864E+00   2.822610E+00   2.822406E+00   2.822300E+00   2.822267E+00   2.822341E+00   2.822511E+00   2.822762E+00   2.823092E+00   2.823461E+00   2.823840E+00   2.824188E+00   2.824524E+00   2.824810E+00   2.825055E+00   2.825279E+00   2.825454E+00   2.825582E+00   2.825679E+00   2.825728E+00   2.825732E+00   2.825700E+00   2.825640E+00   2.825575E+00   2.825513E+00   2.825495E+00   2.825528E+00   2.825552E+00   2.825584E+00   2.825608E+00   2.825613E+00   2.825622E+00   2.825644E+00   2.825688E+00   2.825732E+00   2.825777E+00   2.825805E+00
   2.826025E+00   2.826194E+00   2.826254E+00   2.826243E+00   2.826142E+00   2.826026E+00   2.825916E+00   2.825843E+00   2.825761E+00   2.825641E+00   2.825457E+00   2.825249E+00   2.825030E+00   2.824830E+00   2.824660E+00   2.824519E+00   2.824371E+00   2.824299E+00   2.824307E+00   2.824405E+00   2.824570E+00   2.824792E+00   2.825001E+00   2.825207E+00   2.825403E+00   2.825595E+00   2.825764E+00   2.825939E+00   2.826118E+00   2.826292E+00   2.826445E+00   2.826563E+00   2.826623E+00   2.826635E+00   2.826574E+00   2.826427E+00   2.826194E+00   2.825859E+00   2.825435E+00   2.824968E+00   2.824523E+00   2.824140E+00   2.823800E+00   2.823495E+00   2.823252E+00   2.823038E+00   2.822897E+00   2.822807E+00   2.822811E+00   2.822881E+00   2.823005E+00   2.823131E+00   2.823236E+00   2.823326E+00   2.823373E+00   2.823403E+00   2.823447E+00   2.823568E+00   2.823784E+00   2.824100E+00   2.824519E+00   2.824974E+00   2.825432E+00   2.825813E+00   2.826074E+00   2.826187E+00   2.826203E+00   2.826135E+00   2.825988E+00   2.825778E+00   2.825546E+00   2.825311E+00   2.825056E+00   2.824824E+00   2.824610E+00   2.824420E+00   2.824289E+00   2.824168E+00   2.824085E+00   2.824008E+00   2.823936E+00   2.823841E+00   2.823760E+00   2.823684E+00   2.823604E+00   2.823503E+00   2.823399E+00   2.823335E+00   2.823336E+00   2.823438E+00   2.823606E+00   2.823817E+00   2.824029E+00   2.824256E+00   2.824481E+00   2.824688E+00   2.824878E+00   2.824997E+00   2.825061E+00   2.825068E+00   2.825015E+00   2.824950E+00   2.824868E+00   2.824791E+00   2.824741E+00   2.824728E+00   2.824740E+00   2.824745E+00   2.824758E+00   2.824772E+00   2.824806E+00   2.824869E+00   2.824988E+00   2.825114E+00   2.825211E+00   2.825277E+00   2.825319E+00   2.825343E+00   2.825397E+00   2.825494E+00   2.825647E+00   2.825837E+00   2.826056E+00   2.826258E+00   2.826395E+00   2.826450E+00   2.826430E+00   2.826380E+00   2.826339E+00   2.826312E+00   2.826344E+00   2.826374E+00   2.826359E+00   2.826266E+00   2.826117E+00   2.825914E+00   2.825720E+00   2.825578E+00   2.825563E+00   2.825649E+00   2.825861E+00   2.826164E+00   2.826483E+00   2.826761E+00   2.826975E+00   2.827145E+00   2.827288E+00   2.827417E+00   2.827499E+00   2.827520E+00   2.827446E+00   2.827264E+00   2.826993E+00   2.826637E+00   2.826229E+00   2.825780E+00   2.825347E+00   2.824928E+00   2.824567E+00   2.824260E+00   2.823972E+00   2.823663E+00   2.823366E+00   2.823081E+00   2.822823E+00   2.822630E+00   2.822502E+00   2.822485E+00   2.822558E+00   2.822717E+00   2.822933E+00   2.823240E+00   2.823581E+00   2.823908E+00   2.824204E+00   2.824458E+00   2.824675E+00   2.824863E+00   2.825034E+00   2.825161E+00   2.825290E+00   2.825404E+00   2.825467E+00   2.825485E+00   2.825455E+00   2.825392E+00   2.825321E+00   2.825241E+00   2.825203E+00   2.825192E+00   2.825214E+00   2.825227E+00   2.825255E+00   2.825265E+00   2.825303E+00   2.825354E+00   2.825416E+00   2.825525E+00   2.825631E+00   2.825741E+00
   2.826114E+00   2.826342E+00   2.826488E+00   2.826513E+00   2.826471E+00   2.826356E+00   2.826273E+00   2.826189E+00   2.826070E+00   2.825885E+00   2.825641E+00   2.825384E+00   2.825134E+00   2.824908E+00   2.824748E+00   2.824627E+00   2.824532E+00   2.824469E+00   2.824466E+00   2.824548E+00   2.824691E+00   2.824899E+00   2.825137E+00   2.825343E+00   2.825537E+00   2.825707E+00   2.825874E+00   2.826060E+00   2.826269E+00   2.826445E+00   2.826594E+00   2.826706E+00   2.826789E+00   2.826801E+00   2.826744E+00   2.826601E+00   2.826390E+00   2.826097E+00   2.825712E+00   2.825259E+00   2.824794E+00   2.824363E+00   2.823978E+00   2.823663E+00   2.823394E+00   2.823199E+00   2.823072E+00   2.823032E+00   2.823070E+00   2.823157E+00   2.823277E+00   2.823399E+00   2.823520E+00   2.823587E+00   2.823633E+00   2.823665E+00   2.823743E+00   2.823906E+00   2.824168E+00   2.824543E+00   2.825000E+00   2.825496E+00   2.825942E+00   2.826315E+00   2.826564E+00   2.826679E+00   2.826685E+00   2.826620E+00   2.826482E+00   2.826296E+00   2.826102E+00   2.825875E+00   2.825623E+00   2.825373E+00   2.825100E+00   2.824868E+00   2.824669E+00   2.824495E+00   2.824338E+00   2.824204E+00   2.824105E+00   2.823996E+00   2.823904E+00   2.823833E+00   2.823744E+00   2.823677E+00   2.823611E+00   2.823579E+00   2.823610E+00   2.823699E+00   2.823880E+00   2.824076E+00   2.824291E+00   2.824515E+00   2.824704E+00   2.824858E+00   2.825010E+00   2.825140E+00   2.825178E+00   2.825187E+00   2.825124E+00   2.825052E+00   2.824965E+00   2.824873E+00   2.824795E+00   2.824747E+00   2.824721E+00   2.824732E+00   2.824750E+00   2.824800E+00   2.824874E+00   2.824962E+00   2.825068E+00   2.825152E+00   2.825213E+00   2.825254E+00   2.825269E+00   2.825265E+00   2.825250E+00   2.825268E+00   2.825330E+00   2.825443E+00   2.825586E+00   2.825723E+00   2.825824E+00   2.825879E+00   2.825888E+00   2.825895E+00   2.825907E+00   2.825944E+00   2.826012E+00   2.826098E+00   2.826122E+00   2.826085E+00   2.825962E+00   2.825802E+00   2.825616E+00   2.825487E+00   2.825448E+00   2.825527E+00   2.825701E+00   2.825964E+00   2.826247E+00   2.826502E+00   2.826689E+00   2.826855E+00   2.826993E+00   2.827131E+00   2.827221E+00   2.827256E+00   2.827205E+00   2.827066E+00   2.826832E+00   2.826535E+00   2.826175E+00   2.825776E+00   2.825383E+00   2.824994E+00   2.824647E+00   2.824361E+00   2.824091E+00   2.823821E+00   2.823536E+00   2.823288E+00   2.823068E+00   2.822897E+00   2.822803E+00   2.822786E+00   2.822870E+00   2.823000E+00   2.823200E+00   2.823444E+00   2.823718E+00   2.823986E+00   2.824218E+00   2.824386E+00   2.824531E+00   2.824666E+00   2.824781E+00   2.824879E+00   2.824987E+00   2.825092E+00   2.825179E+00   2.825198E+00   2.825181E+00   2.825117E+00   2.825035E+00   2.824955E+00   2.824896E+00   2.824872E+00   2.824862E+00   2.824881E+00   2.824882E+00   2.824914E+00   2.824982E+00   2.825068E+00   2.825180E+00   2.825330E+00   2.825503E+00   2.825658E+00