# LPF package for  MODFLOW-2005, generated by Flopy.
         0    -1E+30         0  
         0
         0
   1.000000E+00
         0
         0
INTERNAL               1 (200E15.6) -1 #hk layer 1                    
   3.962767E+00   3.935220E+00   3.904549E+00   3.862516E+00   3.833755E+00   3.813316E+00   3.801951E+00   3.789201E+00   3.787581E+00   3.761314E+00   3.731878E+00   3.688850E+00   3.641619E+00   3.585213E+00   3.527619E+00   3.488720E+00   3.471221E+00   3.475552E+00   3.487823E+00   3.514938E+00   3.555463E+00   3.610198E+00   3.676235E+00   3.769754E+00   3.856449E+00   3.942640E+00   4.024020E+00   4.102606E+00   4.173366E+00   4.228878E+00   4.263484E+00   4.278182E+00   4.262513E+00   4.208801E+00   4.144186E+00   4.061113E+00   3.983735E+00   3.902578E+00   3.837417E+00   3.780511E+00   3.734463E+00   3.705112E+00   3.677734E+00   3.641520E+00   3.612186E+00   3.596241E+00   3.597864E+00   3.596415E+00   3.597020E+00   3.587641E+00   3.565845E+00   3.538438E+00   3.502575E+00   3.460895E+00   3.425161E+00   3.380419E+00   3.348113E+00   3.330693E+00   3.342679E+00   3.384888E+00   3.438020E+00   3.508806E+00   3.589166E+00   3.667738E+00   3.725113E+00   3.774395E+00   3.803989E+00   3.824235E+00   3.826191E+00   3.806250E+00   3.768814E+00   3.724421E+00   3.684041E+00   3.658978E+00   3.654869E+00   3.647296E+00   3.655556E+00   3.651854E+00   3.644654E+00   3.635221E+00   3.635809E+00   3.623772E+00   3.611412E+00   3.599444E+00   3.583031E+00   3.572166E+00   3.569931E+00   3.582242E+00   3.598201E+00   3.648995E+00   3.714874E+00   3.790889E+00   3.863276E+00   3.918324E+00   3.938060E+00   3.934280E+00   3.911777E+00   3.868134E+00   3.820152E+00   3.755180E+00   3.688733E+00   3.614278E+00   3.538720E+00   3.483414E+00   3.436674E+00   3.398478E+00   3.375306E+00   3.354217E+00   3.352284E+00   3.340776E+00   3.328516E+00   3.308832E+00   3.299253E+00   3.304943E+00   3.313789E+00   3.343946E+00   3.403359E+00   3.481875E+00   3.577402E+00   3.681889E+00   3.773141E+00   3.873402E+00   3.963046E+00   4.047369E+00   4.127087E+00   4.192589E+00   4.268191E+00   4.325149E+00   4.356761E+00   4.373036E+00   4.360208E+00   4.335553E+00   4.308331E+00   4.267534E+00   4.212903E+00   4.168977E+00   4.110968E+00   4.072241E+00   4.050352E+00   4.051491E+00   4.074195E+00   4.106765E+00   4.158753E+00   4.213272E+00   4.279470E+00   4.349061E+00   4.431354E+00   4.525163E+00   4.590708E+00   4.616947E+00   4.595866E+00   4.545371E+00   4.457907E+00   4.370970E+00   4.269282E+00   4.164026E+00   4.064034E+00   3.962105E+00   3.866482E+00   3.760681E+00   3.673478E+00   3.572966E+00   3.493705E+00   3.439880E+00   3.401734E+00   3.384953E+00   3.388994E+00   3.415065E+00   3.461259E+00   3.544772E+00   3.647635E+00   3.756742E+00   3.870510E+00   3.969532E+00   4.043417E+00   4.094683E+00   4.129282E+00   4.160692E+00   4.187197E+00   4.202245E+00   4.222059E+00   4.238150E+00   4.251544E+00   4.250244E+00   4.238765E+00   4.202067E+00   4.152984E+00   4.089839E+00   4.031982E+00   3.993567E+00   3.975516E+00   3.977365E+00   3.985291E+00   4.000326E+00   4.005164E+00   4.010214E+00   4.009902E+00   3.991147E+00   3.983151E+00   3.979264E+00
   3.931039E+00   3.887635E+00   3.829657E+00   3.762434E+00   3.694345E+00   3.655291E+00   3.623276E+00   3.599489E+00   3.585219E+00   3.568807E+00   3.517940E+00   3.458709E+00   3.366059E+00   3.277452E+00   3.188886E+00   3.124212E+00   3.088014E+00   3.089385E+00   3.108829E+00   3.145912E+00   3.206914E+00   3.294796E+00   3.408859E+00   3.546160E+00   3.701300E+00   3.869414E+00   4.044222E+00   4.212931E+00   4.363908E+00   4.476852E+00   4.542800E+00   4.578599E+00   4.539558E+00   4.450134E+00   4.314026E+00   4.167145E+00   4.017118E+00   3.866666E+00   3.721448E+00   3.617431E+00   3.532257E+00   3.477733E+00   3.426749E+00   3.378243E+00   3.326978E+00   3.299432E+00   3.291417E+00   3.285521E+00   3.282828E+00   3.269434E+00   3.241894E+00   3.198039E+00   3.151861E+00   3.091533E+00   3.019134E+00   2.952957E+00   2.904700E+00   2.881369E+00   2.896932E+00   2.955985E+00   3.048488E+00   3.177704E+00   3.316772E+00   3.439747E+00   3.541292E+00   3.620638E+00   3.660220E+00   3.671307E+00   3.654929E+00   3.608150E+00   3.537159E+00   3.463372E+00   3.395129E+00   3.346869E+00   3.318480E+00   3.305942E+00   3.306953E+00   3.317436E+00   3.330903E+00   3.344792E+00   3.346283E+00   3.339747E+00   3.320335E+00   3.291571E+00   3.255538E+00   3.224081E+00   3.214231E+00   3.223196E+00   3.256878E+00   3.326685E+00   3.449524E+00   3.571579E+00   3.708069E+00   3.808178E+00   3.860913E+00   3.865940E+00   3.817518E+00   3.748180E+00   3.658899E+00   3.553112E+00   3.436074E+00   3.309214E+00   3.182667E+00   3.081892E+00   3.002574E+00   2.939378E+00   2.898852E+00   2.875430E+00   2.857727E+00   2.842522E+00   2.823038E+00   2.810443E+00   2.814456E+00   2.823966E+00   2.855722E+00   2.913221E+00   2.996949E+00   3.108377E+00   3.251747E+00   3.408248E+00   3.571027E+00   3.748612E+00   3.920066E+00   4.087046E+00   4.236431E+00   4.381906E+00   4.511791E+00   4.608219E+00   4.648795E+00   4.659245E+00   4.639262E+00   4.593734E+00   4.519162E+00   4.415646E+00   4.309504E+00   4.212418E+00   4.139996E+00   4.086593E+00   4.073667E+00   4.088519E+00   4.138889E+00   4.222737E+00   4.297401E+00   4.407009E+00   4.525988E+00   4.681158E+00   4.854852E+00   5.038182E+00   5.182911E+00   5.230680E+00   5.195662E+00   5.072838E+00   4.905340E+00   4.710525E+00   4.497447E+00   4.284676E+00   4.077202E+00   3.883489E+00   3.689378E+00   3.512995E+00   3.338936E+00   3.194733E+00   3.066846E+00   2.985949E+00   2.935499E+00   2.910656E+00   2.918893E+00   2.971439E+00   3.068116E+00   3.207797E+00   3.373804E+00   3.558044E+00   3.746383E+00   3.909539E+00   4.045496E+00   4.142121E+00   4.213103E+00   4.270485E+00   4.312829E+00   4.347669E+00   4.378926E+00   4.414286E+00   4.424609E+00   4.419833E+00   4.381710E+00   4.328416E+00   4.247535E+00   4.152845E+00   4.068265E+00   4.004827E+00   4.003954E+00   4.018855E+00   4.044876E+00   4.059602E+00   4.058008E+00   4.054783E+00   4.036840E+00   4.011723E+00   3.986673E+00   3.982294E+00
   3.911367E+00   3.831363E+00   3.748913E+00   3.665076E+00   3.598120E+00   3.527166E+00   3.481695E+00   3.447783E+00   3.425965E+00   3.389444E+00   3.341906E+00   3.261218E+00   3.174291E+00   3.070265E+00   2.974363E+00   2.897065E+00   2.853109E+00   2.845830E+00   2.866094E+00   2.912393E+00   2.976393E+00   3.079092E+00   3.215686E+00   3.387473E+00   3.576921E+00   3.793270E+00   4.037895E+00   4.276530E+00   4.495399E+00   4.657459E+00   4.768340E+00   4.801508E+00   4.762941E+00   4.652851E+00   4.500782E+00   4.293205E+00   4.082589E+00   3.863446E+00   3.680255E+00   3.528852E+00   3.416191E+00   3.325434E+00   3.259205E+00   3.194536E+00   3.126913E+00   3.063630E+00   3.038977E+00   3.013901E+00   3.011918E+00   3.010856E+00   3.004284E+00   2.979082E+00   2.952970E+00   2.897655E+00   2.834575E+00   2.772526E+00   2.717756E+00   2.691833E+00   2.709745E+00   2.779216E+00   2.893785E+00   3.038732E+00   3.197127E+00   3.348032E+00   3.465525E+00   3.537007E+00   3.565947E+00   3.555259E+00   3.505853E+00   3.430112E+00   3.324146E+00   3.223008E+00   3.130081E+00   3.063309E+00   3.021327E+00   3.001028E+00   3.008910E+00   3.033685E+00   3.074795E+00   3.111289E+00   3.131222E+00   3.131592E+00   3.116737E+00   3.074229E+00   3.034363E+00   2.993325E+00   2.964967E+00   2.957734E+00   2.984531E+00   3.066758E+00   3.196347E+00   3.362179E+00   3.523886E+00   3.667919E+00   3.738857E+00   3.748514E+00   3.707798E+00   3.629752E+00   3.533736E+00   3.403368E+00   3.255737E+00   3.101736E+00   2.952945E+00   2.817118E+00   2.714239E+00   2.633646E+00   2.576539E+00   2.543513E+00   2.525760E+00   2.512186E+00   2.502293E+00   2.501106E+00   2.520453E+00   2.552388E+00   2.595271E+00   2.671890E+00   2.769068E+00   2.892443E+00   3.055990E+00   3.236931E+00   3.429832E+00   3.652872E+00   3.878095E+00   4.097915E+00   4.299559E+00   4.472457E+00   4.633370E+00   4.738771E+00   4.800716E+00   4.799703E+00   4.755033E+00   4.666796E+00   4.541624E+00   4.403085E+00   4.262394E+00   4.144902E+00   4.046931E+00   4.002007E+00   3.997631E+00   4.042819E+00   4.128010E+00   4.226941E+00   4.359425E+00   4.515067E+00   4.710912E+00   4.934732E+00   5.204999E+00   5.455379E+00   5.643433E+00   5.717412E+00   5.675354E+00   5.512781E+00   5.265794E+00   4.981378E+00   4.677459E+00   4.377694E+00   4.084493E+00   3.800835E+00   3.528772E+00   3.280975E+00   3.065225E+00   2.875042E+00   2.742775E+00   2.651695E+00   2.599886E+00   2.586346E+00   2.616409E+00   2.692388E+00   2.815696E+00   2.983457E+00   3.191224E+00   3.407865E+00   3.631454E+00   3.835578E+00   4.015782E+00   4.145570E+00   4.243175E+00   4.308951E+00   4.360960E+00   4.399508E+00   4.422487E+00   4.429969E+00   4.436891E+00   4.415144E+00   4.373703E+00   4.306074E+00   4.231394E+00   4.167131E+00   4.107420E+00   4.083093E+00   4.095479E+00   4.140460E+00   4.191268E+00   4.206260E+00   4.196233E+00   4.158062E+00   4.116514E+00   4.075983E+00   4.039226E+00   4.009604E+00
   3.896291E+00   3.807884E+00   3.706400E+00   3.616803E+00   3.543688E+00   3.482930E+00   3.425912E+00   3.385793E+00   3.348016E+00   3.304462E+00   3.237202E+00   3.161658E+00   3.060058E+00   2.958329E+00   2.860797E+00   2.787968E+00   2.737860E+00   2.721984E+00   2.738783E+00   2.785488E+00   2.846936E+00   2.944155E+00   3.081159E+00   3.263760E+00   3.476292E+00   3.718130E+00   3.983551E+00   4.264871E+00   4.516724E+00   4.716590E+00   4.850671E+00   4.916075E+00   4.878134E+00   4.797268E+00   4.627625E+00   4.408077E+00   4.159838E+00   3.904708E+00   3.671513E+00   3.492391E+00   3.347829E+00   3.229033E+00   3.124635E+00   3.028302E+00   2.943677E+00   2.872940E+00   2.826996E+00   2.791245E+00   2.786400E+00   2.799883E+00   2.824706E+00   2.847678E+00   2.863943E+00   2.863179E+00   2.829927E+00   2.784591E+00   2.741408E+00   2.725930E+00   2.748743E+00   2.821482E+00   2.941177E+00   3.095601E+00   3.256279E+00   3.401570E+00   3.504706E+00   3.551365E+00   3.541228E+00   3.483379E+00   3.397177E+00   3.283918E+00   3.158188E+00   3.025146E+00   2.914742E+00   2.825213E+00   2.781542E+00   2.772340E+00   2.795522E+00   2.835990E+00   2.895777E+00   2.947622E+00   2.992304E+00   3.008295E+00   2.996010E+00   2.955254E+00   2.894258E+00   2.837018E+00   2.786757E+00   2.764332E+00   2.783916E+00   2.851857E+00   2.984816E+00   3.145432E+00   3.331533E+00   3.492000E+00   3.600881E+00   3.640464E+00   3.616493E+00   3.548603E+00   3.453619E+00   3.323518E+00   3.168947E+00   2.995572E+00   2.832597E+00   2.694580E+00   2.573795E+00   2.487721E+00   2.433851E+00   2.393461E+00   2.380891E+00   2.366900E+00   2.370541E+00   2.385132E+00   2.415886E+00   2.466162E+00   2.529994E+00   2.616293E+00   2.714478E+00   2.835624E+00   2.981978E+00   3.155052E+00   3.350289E+00   3.571413E+00   3.813504E+00   4.059306E+00   4.280881E+00   4.464425E+00   4.609081E+00   4.704309E+00   4.741817E+00   4.729191E+00   4.662405E+00   4.551784E+00   4.400207E+00   4.236233E+00   4.082455E+00   3.944703E+00   3.856503E+00   3.807331E+00   3.816297E+00   3.887622E+00   4.005106E+00   4.149919E+00   4.329085E+00   4.553467E+00   4.811261E+00   5.114390E+00   5.422167E+00   5.737267E+00   5.978829E+00   6.084892E+00   6.044017E+00   5.855937E+00   5.551278E+00   5.188615E+00   4.810345E+00   4.451963E+00   4.092620E+00   3.748496E+00   3.424899E+00   3.138279E+00   2.889079E+00   2.700318E+00   2.550426E+00   2.444866E+00   2.391254E+00   2.379999E+00   2.412498E+00   2.497267E+00   2.633746E+00   2.830874E+00   3.049616E+00   3.291575E+00   3.531559E+00   3.766148E+00   3.957712E+00   4.112766E+00   4.208978E+00   4.281199E+00   4.318759E+00   4.338895E+00   4.336860E+00   4.334360E+00   4.302445E+00   4.280340E+00   4.230923E+00   4.188947E+00   4.154753E+00   4.129283E+00   4.138365E+00   4.184877E+00   4.258555E+00   4.340693E+00   4.393828E+00   4.415480E+00   4.385966E+00   4.323253E+00   4.236989E+00   4.156031E+00   4.091981E+00   4.036543E+00
   3.901663E+00   3.809651E+00   3.712809E+00   3.629931E+00   3.558201E+00   3.492630E+00   3.437716E+00   3.386256E+00   3.349726E+00   3.288435E+00   3.216112E+00   3.121349E+00   3.023268E+00   2.922527E+00   2.831211E+00   2.753087E+00   2.701708E+00   2.678770E+00   2.699844E+00   2.742623E+00   2.817701E+00   2.926567E+00   3.056261E+00   3.230250E+00   3.438326E+00   3.675421E+00   3.932560E+00   4.187635E+00   4.435341E+00   4.641937E+00   4.792365E+00   4.872525E+00   4.908934E+00   4.864840E+00   4.746933E+00   4.554322E+00   4.324167E+00   4.030472E+00   3.759308E+00   3.508899E+00   3.314235E+00   3.156776E+00   3.022811E+00   2.903856E+00   2.799779E+00   2.721478E+00   2.671253E+00   2.639110E+00   2.636696E+00   2.670308E+00   2.738664E+00   2.822858E+00   2.909940E+00   2.960429E+00   2.975984E+00   2.960120E+00   2.945304E+00   2.944678E+00   2.982764E+00   3.057442E+00   3.184295E+00   3.341294E+00   3.498655E+00   3.627099E+00   3.703006E+00   3.705267E+00   3.643330E+00   3.534939E+00   3.394129E+00   3.237719E+00   3.074124E+00   2.924117E+00   2.788368E+00   2.691236E+00   2.641682E+00   2.636193E+00   2.665235E+00   2.729314E+00   2.800018E+00   2.866229E+00   2.918198E+00   2.931369E+00   2.906198E+00   2.851727E+00   2.781801E+00   2.705022E+00   2.636722E+00   2.599298E+00   2.599224E+00   2.653854E+00   2.769770E+00   2.935755E+00   3.119241E+00   3.298709E+00   3.442182E+00   3.518223E+00   3.534151E+00   3.508504E+00   3.444552E+00   3.340532E+00   3.192445E+00   3.012734E+00   2.849106E+00   2.706368E+00   2.595906E+00   2.518534E+00   2.464107E+00   2.428155E+00   2.404517E+00   2.406777E+00   2.422171E+00   2.448568E+00   2.486740E+00   2.553372E+00   2.621942E+00   2.698343E+00   2.789927E+00   2.883366E+00   3.000713E+00   3.141317E+00   3.320147E+00   3.524359E+00   3.753945E+00   3.992091E+00   4.188377E+00   4.356063E+00   4.461853E+00   4.500179E+00   4.506039E+00   4.485393E+00   4.419355E+00   4.310037E+00   4.154880E+00   4.001900E+00   3.840629E+00   3.701967E+00   3.601157E+00   3.565824E+00   3.584943E+00   3.674572E+00   3.811522E+00   4.004089E+00   4.232921E+00   4.505561E+00   4.816914E+00   5.151829E+00   5.489594E+00   5.837158E+00   6.113294E+00   6.268794E+00   6.251269E+00   6.081903E+00   5.759127E+00   5.355388E+00   4.927868E+00   4.504652E+00   4.098941E+00   3.720237E+00   3.368444E+00   3.066126E+00   2.810859E+00   2.600798E+00   2.445209E+00   2.332050E+00   2.270368E+00   2.254584E+00   2.287942E+00   2.375903E+00   2.523009E+00   2.715032E+00   2.944474E+00   3.190438E+00   3.442837E+00   3.688534E+00   3.912885E+00   4.079439E+00   4.192235E+00   4.246076E+00   4.278816E+00   4.267759E+00   4.247216E+00   4.205974E+00   4.171985E+00   4.134574E+00   4.107440E+00   4.080746E+00   4.088037E+00   4.122337E+00   4.193227E+00   4.300726E+00   4.423477E+00   4.541019E+00   4.622896E+00   4.633772E+00   4.597828E+00   4.522491E+00   4.414481E+00   4.300152E+00   4.189108E+00   4.089311E+00
   3.927613E+00   3.860316E+00   3.788198E+00   3.722677E+00   3.643123E+00   3.574425E+00   3.506502E+00   3.459467E+00   3.411940E+00   3.347067E+00   3.262431E+00   3.163764E+00   3.052584E+00   2.955966E+00   2.864687E+00   2.791258E+00   2.733246E+00   2.716198E+00   2.734689E+00   2.797951E+00   2.881672E+00   2.997668E+00   3.127893E+00   3.292945E+00   3.480301E+00   3.681119E+00   3.901378E+00   4.138037E+00   4.358393E+00   4.559253E+00   4.716228E+00   4.837293E+00   4.929087E+00   4.954788E+00   4.886878E+00   4.749508E+00   4.529358E+00   4.227286E+00   3.908525E+00   3.604457E+00   3.351228E+00   3.144799E+00   2.970988E+00   2.837204E+00   2.728400E+00   2.642860E+00   2.593862E+00   2.572605E+00   2.599775E+00   2.666993E+00   2.776091E+00   2.913318E+00   3.051437E+00   3.165835E+00   3.227836E+00   3.263649E+00   3.280982E+00   3.300924E+00   3.350756E+00   3.445468E+00   3.576401E+00   3.732200E+00   3.894289E+00   4.002618E+00   4.042646E+00   3.995483E+00   3.872843E+00   3.711112E+00   3.517994E+00   3.313408E+00   3.125416E+00   2.946453E+00   2.803363E+00   2.694485E+00   2.638935E+00   2.634170E+00   2.659527E+00   2.716723E+00   2.789893E+00   2.847535E+00   2.889716E+00   2.890442E+00   2.852874E+00   2.789973E+00   2.706747E+00   2.613871E+00   2.526736E+00   2.465492E+00   2.452462E+00   2.498000E+00   2.601866E+00   2.760953E+00   2.955971E+00   3.156384E+00   3.335232E+00   3.460789E+00   3.530584E+00   3.550500E+00   3.522201E+00   3.436615E+00   3.299350E+00   3.143661E+00   2.984166E+00   2.847402E+00   2.743436E+00   2.675095E+00   2.635808E+00   2.605886E+00   2.594600E+00   2.592132E+00   2.609304E+00   2.639430E+00   2.691446E+00   2.750954E+00   2.813220E+00   2.870926E+00   2.921622E+00   2.981272E+00   3.060867E+00   3.169718E+00   3.313792E+00   3.483351E+00   3.679849E+00   3.872417E+00   4.036968E+00   4.143597E+00   4.185990E+00   4.176810E+00   4.163944E+00   4.130367E+00   4.092431E+00   4.018155E+00   3.917693E+00   3.791522E+00   3.648297E+00   3.509231E+00   3.404889E+00   3.358180E+00   3.388819E+00   3.479729E+00   3.632232E+00   3.854065E+00   4.107800E+00   4.400836E+00   4.727075E+00   5.081570E+00   5.440151E+00   5.796725E+00   6.092144E+00   6.274807E+00   6.310375E+00   6.158141E+00   5.832316E+00   5.429878E+00   4.998599E+00   4.558766E+00   4.133214E+00   3.731838E+00   3.385280E+00   3.080588E+00   2.821060E+00   2.606212E+00   2.436897E+00   2.311002E+00   2.233912E+00   2.206071E+00   2.235335E+00   2.314659E+00   2.455577E+00   2.643695E+00   2.873008E+00   3.127548E+00   3.388699E+00   3.643911E+00   3.860618E+00   4.029399E+00   4.142144E+00   4.208543E+00   4.219565E+00   4.215342E+00   4.167281E+00   4.130516E+00   4.083175E+00   4.052802E+00   4.026782E+00   4.033721E+00   4.065197E+00   4.129895E+00   4.237262E+00   4.388147E+00   4.552728E+00   4.687456E+00   4.764163E+00   4.776169E+00   4.729177E+00   4.654538E+00   4.558992E+00   4.432442E+00   4.291452E+00   4.145054E+00
   3.979091E+00   3.955809E+00   3.915702E+00   3.845675E+00   3.786712E+00   3.701705E+00   3.639812E+00   3.584650E+00   3.537981E+00   3.469285E+00   3.374100E+00   3.260243E+00   3.136615E+00   3.032214E+00   2.942654E+00   2.871335E+00   2.819382E+00   2.790647E+00   2.819952E+00   2.883442E+00   2.984401E+00   3.110413E+00   3.237046E+00   3.391541E+00   3.556861E+00   3.740090E+00   3.941393E+00   4.130678E+00   4.330970E+00   4.528897E+00   4.722147E+00   4.876226E+00   4.993982E+00   5.068201E+00   5.074774E+00   4.980568E+00   4.779272E+00   4.475840E+00   4.124159E+00   3.773834E+00   3.476416E+00   3.219466E+00   3.016384E+00   2.855239E+00   2.731651E+00   2.650742E+00   2.602220E+00   2.606380E+00   2.658834E+00   2.753582E+00   2.901395E+00   3.083067E+00   3.264115E+00   3.424743E+00   3.535019E+00   3.600039E+00   3.640112E+00   3.670112E+00   3.741436E+00   3.854607E+00   4.002856E+00   4.173447E+00   4.335693E+00   4.434434E+00   4.437597E+00   4.351280E+00   4.188755E+00   3.979925E+00   3.749624E+00   3.520449E+00   3.295804E+00   3.104683E+00   2.944021E+00   2.832917E+00   2.760128E+00   2.730572E+00   2.735561E+00   2.772075E+00   2.824071E+00   2.866935E+00   2.880451E+00   2.862764E+00   2.808448E+00   2.741756E+00   2.651161E+00   2.550681E+00   2.459943E+00   2.393864E+00   2.382119E+00   2.432343E+00   2.542672E+00   2.699036E+00   2.900542E+00   3.110330E+00   3.316192E+00   3.494083E+00   3.620627E+00   3.673891E+00   3.670342E+00   3.599257E+00   3.483560E+00   3.343584E+00   3.199871E+00   3.071591E+00   2.981613E+00   2.925685E+00   2.895478E+00   2.879169E+00   2.873760E+00   2.873086E+00   2.885378E+00   2.914457E+00   2.965509E+00   3.022779E+00   3.066652E+00   3.108792E+00   3.122553E+00   3.139391E+00   3.170920E+00   3.221430E+00   3.308843E+00   3.421290E+00   3.553733E+00   3.683502E+00   3.774940E+00   3.814712E+00   3.803066E+00   3.771946E+00   3.744574E+00   3.737251E+00   3.735993E+00   3.736500E+00   3.699505E+00   3.620420E+00   3.521381E+00   3.398282E+00   3.291773E+00   3.229571E+00   3.249591E+00   3.343390E+00   3.512628E+00   3.753558E+00   4.030278E+00   4.332566E+00   4.645501E+00   4.978307E+00   5.325409E+00   5.670022E+00   5.977966E+00   6.189886E+00   6.239654E+00   6.110269E+00   5.834641E+00   5.472612E+00   5.047255E+00   4.617318E+00   4.185184E+00   3.797932E+00   3.451108E+00   3.153026E+00   2.899225E+00   2.672772E+00   2.491983E+00   2.356823E+00   2.272252E+00   2.236081E+00   2.257710E+00   2.326846E+00   2.455157E+00   2.631681E+00   2.853667E+00   3.110709E+00   3.385532E+00   3.642617E+00   3.848230E+00   3.999343E+00   4.091589E+00   4.131009E+00   4.141965E+00   4.115518E+00   4.073886E+00   4.031785E+00   3.994684E+00   3.959594E+00   3.949208E+00   3.954735E+00   4.000259E+00   4.075736E+00   4.202691E+00   4.372003E+00   4.536959E+00   4.675468E+00   4.759017E+00   4.768119E+00   4.727977E+00   4.655806E+00   4.566766E+00   4.446477E+00   4.311246E+00   4.158997E+00
   4.043792E+00   4.083956E+00   4.071132E+00   4.036911E+00   3.960486E+00   3.884628E+00   3.813134E+00   3.758996E+00   3.692531E+00   3.603635E+00   3.479628E+00   3.349765E+00   3.220976E+00   3.113782E+00   3.027361E+00   2.968219E+00   2.913385E+00   2.900721E+00   2.924171E+00   2.988931E+00   3.088074E+00   3.214366E+00   3.342036E+00   3.478667E+00   3.627295E+00   3.797478E+00   3.965843E+00   4.147853E+00   4.341996E+00   4.551998E+00   4.756569E+00   4.954966E+00   5.105493E+00   5.217926E+00   5.244241E+00   5.180562E+00   5.009542E+00   4.736756E+00   4.380971E+00   4.004150E+00   3.652027E+00   3.363977E+00   3.126898E+00   2.945233E+00   2.819741E+00   2.735919E+00   2.707110E+00   2.716821E+00   2.787245E+00   2.908927E+00   3.080285E+00   3.272127E+00   3.457864E+00   3.628046E+00   3.747614E+00   3.825800E+00   3.874006E+00   3.940652E+00   4.035727E+00   4.175280E+00   4.366347E+00   4.565742E+00   4.748800E+00   4.855876E+00   4.847485E+00   4.723992E+00   4.530292E+00   4.301476E+00   4.057095E+00   3.805815E+00   3.578063E+00   3.378835E+00   3.201943E+00   3.065792E+00   2.968138E+00   2.905851E+00   2.886153E+00   2.880682E+00   2.896268E+00   2.904900E+00   2.899977E+00   2.859121E+00   2.798571E+00   2.724131E+00   2.642931E+00   2.555156E+00   2.475759E+00   2.430669E+00   2.431417E+00   2.496982E+00   2.613615E+00   2.782018E+00   2.975898E+00   3.193331E+00   3.412137E+00   3.607962E+00   3.763247E+00   3.837799E+00   3.842669E+00   3.784440E+00   3.672370E+00   3.546518E+00   3.415581E+00   3.298366E+00   3.212119E+00   3.164293E+00   3.148577E+00   3.143442E+00   3.147807E+00   3.159814E+00   3.178908E+00   3.207678E+00   3.260447E+00   3.311300E+00   3.340868E+00   3.346309E+00   3.325006E+00   3.288307E+00   3.258724E+00   3.245367E+00   3.260118E+00   3.298318E+00   3.354709E+00   3.410410E+00   3.442638E+00   3.444587E+00   3.415529E+00   3.382597E+00   3.375407E+00   3.390575E+00   3.445210E+00   3.503086E+00   3.535848E+00   3.519307E+00   3.462125E+00   3.369694E+00   3.284462E+00   3.227859E+00   3.242926E+00   3.322387E+00   3.490870E+00   3.741526E+00   4.034189E+00   4.338614E+00   4.636290E+00   4.931626E+00   5.239760E+00   5.556990E+00   5.846792E+00   6.059721E+00   6.143392E+00   6.063126E+00   5.840306E+00   5.501903E+00   5.102650E+00   4.675375E+00   4.269558E+00   3.885846E+00   3.559850E+00   3.277738E+00   3.028011E+00   2.793344E+00   2.600609E+00   2.452091E+00   2.351788E+00   2.308791E+00   2.313780E+00   2.382210E+00   2.499402E+00   2.668695E+00   2.871642E+00   3.122427E+00   3.384785E+00   3.627070E+00   3.814517E+00   3.943492E+00   4.011374E+00   4.035121E+00   4.031222E+00   3.989585E+00   3.960211E+00   3.940392E+00   3.914298E+00   3.892681E+00   3.875159E+00   3.877842E+00   3.913462E+00   3.978502E+00   4.088022E+00   4.228937E+00   4.381536E+00   4.500718E+00   4.581357E+00   4.593992E+00   4.575681E+00   4.527437E+00   4.442646E+00   4.360709E+00   4.255038E+00   4.139216E+00
   4.118068E+00   4.210588E+00   4.262420E+00   4.249676E+00   4.208103E+00   4.124706E+00   4.064713E+00   3.996905E+00   3.908767E+00   3.779142E+00   3.618306E+00   3.458559E+00   3.314969E+00   3.196354E+00   3.115386E+00   3.067897E+00   3.035915E+00   3.024207E+00   3.037360E+00   3.090955E+00   3.170472E+00   3.276215E+00   3.403585E+00   3.532008E+00   3.672436E+00   3.816576E+00   3.980179E+00   4.159742E+00   4.383649E+00   4.596603E+00   4.814069E+00   5.006210E+00   5.181855E+00   5.289710E+00   5.336307E+00   5.285586E+00   5.156525E+00   4.925370E+00   4.611866E+00   4.239599E+00   3.877754E+00   3.554465E+00   3.295283E+00   3.101287E+00   2.959902E+00   2.877289E+00   2.846944E+00   2.876659E+00   2.957649E+00   3.078182E+00   3.238067E+00   3.413501E+00   3.595142E+00   3.736017E+00   3.842282E+00   3.909464E+00   3.972847E+00   4.057536E+00   4.187021E+00   4.375859E+00   4.611318E+00   4.858654E+00   5.050990E+00   5.164411E+00   5.161740E+00   5.044027E+00   4.842831E+00   4.610325E+00   4.366061E+00   4.127767E+00   3.916947E+00   3.720299E+00   3.535077E+00   3.382161E+00   3.238476E+00   3.138206E+00   3.068156E+00   3.020154E+00   2.986603E+00   2.955737E+00   2.920940E+00   2.867373E+00   2.804756E+00   2.742346E+00   2.669605E+00   2.616930E+00   2.576261E+00   2.566115E+00   2.601479E+00   2.682033E+00   2.829088E+00   3.010880E+00   3.223214E+00   3.450152E+00   3.653623E+00   3.812980E+00   3.943049E+00   4.020353E+00   4.008921E+00   3.952118E+00   3.841366E+00   3.726055E+00   3.609773E+00   3.506011E+00   3.425435E+00   3.373001E+00   3.342502E+00   3.343683E+00   3.354238E+00   3.379911E+00   3.413531E+00   3.449744E+00   3.492711E+00   3.513601E+00   3.511767E+00   3.486713E+00   3.433463E+00   3.359026E+00   3.270895E+00   3.190463E+00   3.133208E+00   3.100776E+00   3.091769E+00   3.086715E+00   3.077825E+00   3.064832E+00   3.046624E+00   3.046936E+00   3.070221E+00   3.129392E+00   3.220108E+00   3.330031E+00   3.413481E+00   3.460881E+00   3.454094E+00   3.415822E+00   3.354568E+00   3.319612E+00   3.333729E+00   3.424915E+00   3.583285E+00   3.817957E+00   4.090857E+00   4.376001E+00   4.642500E+00   4.914843E+00   5.188889E+00   5.481614E+00   5.739100E+00   5.936811E+00   6.020930E+00   5.969327E+00   5.783360E+00   5.506713E+00   5.158358E+00   4.773861E+00   4.398545E+00   4.036882E+00   3.707514E+00   3.424902E+00   3.168907E+00   2.935905E+00   2.729223E+00   2.576406E+00   2.472470E+00   2.422689E+00   2.430469E+00   2.485147E+00   2.601602E+00   2.751792E+00   2.948649E+00   3.172714E+00   3.408899E+00   3.626685E+00   3.803856E+00   3.900923E+00   3.955122E+00   3.968410E+00   3.953069E+00   3.917443E+00   3.892722E+00   3.872405E+00   3.861901E+00   3.835840E+00   3.817642E+00   3.802103E+00   3.815500E+00   3.857037E+00   3.933668E+00   4.037518E+00   4.144983E+00   4.243715E+00   4.295216E+00   4.320572E+00   4.320665E+00   4.298123E+00   4.258254E+00   4.217158E+00   4.165389E+00   4.084806E+00