# LPF package for  MODFLOW-2005, generated by Flopy.
         0    -1E+30         0  
         0
         0
   1.000000E+00
         0
         0
INTERNAL               1 (200E15.6) -1 #hk layer 1                    
   3.962823E+00   3.935327E+00   3.904701E+00   3.862705E+00   3.833972E+00   3.813554E+00   3.802207E+00   3.789468E+00   3.787856E+00   3.761593E+00   3.732153E+00   3.689119E+00   3.641873E+00   3.585448E+00   3.527833E+00   3.488915E+00   3.471393E+00   3.475703E+00   3.487957E+00   3.515055E+00   3.555565E+00   3.610288E+00   3.676311E+00   3.769814E+00   3.856493E+00   3.942667E+00   4.024023E+00   4.102579E+00   4.173303E+00   4.228781E+00   4.263350E+00   4.278013E+00   4.262314E+00   4.208584E+00   4.143960E+00   4.060886E+00   3.983519E+00   3.902383E+00   3.837244E+00   3.780363E+00   3.734344E+00   3.705024E+00   3.677674E+00   3.641486E+00   3.612173E+00   3.596247E+00   3.597885E+00   3.596449E+00   3.597064E+00   3.587692E+00   3.565904E+00   3.538500E+00   3.502642E+00   3.460960E+00   3.425222E+00   3.380469E+00   3.348142E+00   3.330692E+00   3.342639E+00   3.384804E+00   3.437893E+00   3.508638E+00   3.588960E+00   3.667497E+00   3.724845E+00   3.774102E+00   3.803676E+00   3.823910E+00   3.825864E+00   3.805934E+00   3.768522E+00   3.724161E+00   3.683821E+00   3.658798E+00   3.654734E+00   3.647206E+00   3.655509E+00   3.651847E+00   3.644687E+00   3.635292E+00   3.635913E+00   3.623905E+00   3.611567E+00   3.599612E+00   3.583206E+00   3.572344E+00   3.570109E+00   3.582416E+00   3.598373E+00   3.649164E+00   3.715035E+00   3.791043E+00   3.863421E+00   3.918465E+00   3.938191E+00   3.934408E+00   3.911903E+00   3.868262E+00   3.820278E+00   3.755308E+00   3.688860E+00   3.614405E+00   3.538849E+00   3.483541E+00   3.436801E+00   3.398603E+00   3.375429E+00   3.354334E+00   3.352399E+00   3.340890E+00   3.328636E+00   3.308958E+00   3.299386E+00   3.305079E+00   3.313932E+00   3.344093E+00   3.403504E+00   3.482012E+00   3.577527E+00   3.682002E+00   3.773241E+00   3.873490E+00   3.963124E+00   4.047445E+00   4.127162E+00   4.192669E+00   4.268273E+00   4.325237E+00   4.356853E+00   4.373132E+00   4.360306E+00   4.335655E+00   4.308441E+00   4.267648E+00   4.213019E+00   4.169090E+00   4.111067E+00   4.072328E+00   4.050422E+00   4.051546E+00   4.074235E+00   4.106792E+00   4.158768E+00   4.213281E+00   4.279475E+00   4.349058E+00   4.431341E+00   4.525133E+00   4.590665E+00   4.616899E+00   4.595823E+00   4.545336E+00   4.457888E+00   4.370967E+00   4.269293E+00   4.164048E+00   4.064066E+00   3.962144E+00   3.866533E+00   3.760737E+00   3.673541E+00   3.573034E+00   3.493779E+00   3.439959E+00   3.401815E+00   3.385033E+00   3.389079E+00   3.415156E+00   3.461359E+00   3.544883E+00   3.647755E+00   3.756874E+00   3.870655E+00   3.969690E+00   4.043593E+00   4.094878E+00   4.129496E+00   4.160923E+00   4.187444E+00   4.202502E+00   4.222328E+00   4.238423E+00   4.251818E+00   4.250519E+00   4.239040E+00   4.202343E+00   4.153261E+00   4.090120E+00   4.032258E+00   3.993832E+00   3.975767E+00   3.977598E+00   3.985508E+00   4.000524E+00   4.005342E+00   4.010373E+00   4.010034E+00   3.991250E+00   3.983222E+00   3.979302E+00
   3.931149E+00   3.887841E+00   3.829944E+00   3.762785E+00   3.694743E+00   3.655728E+00   3.623741E+00   3.599973E+00   3.585713E+00   3.569302E+00   3.518425E+00   3.459173E+00   3.366491E+00   3.277845E+00   3.189242E+00   3.124528E+00   3.088291E+00   3.089628E+00   3.109044E+00   3.146101E+00   3.207083E+00   3.294946E+00   3.408991E+00   3.546269E+00   3.701379E+00   3.869457E+00   4.044214E+00   4.212857E+00   4.363763E+00   4.476627E+00   4.542500E+00   4.578225E+00   4.539126E+00   4.449667E+00   4.313554E+00   4.166686E+00   4.016690E+00   3.866282E+00   3.721116E+00   3.617154E+00   3.532037E+00   3.477569E+00   3.426639E+00   3.378181E+00   3.326959E+00   3.299444E+00   3.291454E+00   3.285579E+00   3.282903E+00   3.269524E+00   3.241997E+00   3.198151E+00   3.151978E+00   3.091647E+00   3.019240E+00   2.953042E+00   2.904753E+00   2.881377E+00   2.896883E+00   2.955866E+00   3.048296E+00   3.177435E+00   3.316428E+00   3.439337E+00   3.540828E+00   3.620128E+00   3.659681E+00   3.670750E+00   3.654373E+00   3.607620E+00   3.536669E+00   3.462939E+00   3.394762E+00   3.346575E+00   3.318263E+00   3.305803E+00   3.306889E+00   3.317440E+00   3.330972E+00   3.344920E+00   3.346464E+00   3.339973E+00   3.320596E+00   3.291856E+00   3.255836E+00   3.224386E+00   3.214535E+00   3.223499E+00   3.257176E+00   3.326979E+00   3.449813E+00   3.571859E+00   3.708340E+00   3.808432E+00   3.861151E+00   3.866166E+00   3.817740E+00   3.748408E+00   3.659130E+00   3.553345E+00   3.436309E+00   3.309451E+00   3.182907E+00   3.082131E+00   3.002810E+00   2.939610E+00   2.899077E+00   2.875648E+00   2.857938E+00   2.842733E+00   2.823253E+00   2.810664E+00   2.814682E+00   2.824198E+00   2.855959E+00   2.913459E+00   2.997183E+00   3.108601E+00   3.251955E+00   3.408434E+00   3.571194E+00   3.748760E+00   3.920198E+00   4.087170E+00   4.236555E+00   4.382032E+00   4.511926E+00   4.608364E+00   4.648955E+00   4.659417E+00   4.639441E+00   4.593926E+00   4.519367E+00   4.415865E+00   4.309724E+00   4.212628E+00   4.140185E+00   4.086755E+00   4.073801E+00   4.088624E+00   4.138968E+00   4.222792E+00   4.297442E+00   4.407040E+00   4.526014E+00   4.681170E+00   4.854842E+00   5.038145E+00   5.182848E+00   5.230606E+00   5.195593E+00   5.072782E+00   4.905311E+00   4.710519E+00   4.497463E+00   4.284709E+00   4.077248E+00   3.883554E+00   3.689458E+00   3.513090E+00   3.339043E+00   3.194851E+00   3.066970E+00   2.986076E+00   2.935627E+00   2.910789E+00   2.919032E+00   2.971591E+00   3.068284E+00   3.207986E+00   3.374016E+00   3.558282E+00   3.746649E+00   3.909833E+00   4.045829E+00   4.142494E+00   4.213515E+00   4.270936E+00   4.313316E+00   4.348185E+00   4.379464E+00   4.414834E+00   4.425165E+00   4.420389E+00   4.382267E+00   4.328975E+00   4.248091E+00   4.153391E+00   4.068791E+00   4.005331E+00   4.004428E+00   4.019300E+00   4.045290E+00   4.059982E+00   4.058349E+00   4.055079E+00   4.037081E+00   4.011906E+00   3.986796E+00   3.982357E+00
   3.911517E+00   3.831646E+00   3.749302E+00   3.665549E+00   3.598655E+00   3.527748E+00   3.482311E+00   3.448418E+00   3.426607E+00   3.390079E+00   3.342520E+00   3.261799E+00   3.174826E+00   3.070751E+00   2.974796E+00   2.897447E+00   2.853442E+00   2.846121E+00   2.866351E+00   2.912621E+00   2.976600E+00   3.079279E+00   3.215849E+00   3.387609E+00   3.577018E+00   3.793307E+00   4.037856E+00   4.276389E+00   4.495140E+00   4.657078E+00   4.767837E+00   4.800900E+00   4.762255E+00   4.652125E+00   4.500055E+00   4.292513E+00   4.081959E+00   3.862895E+00   3.679786E+00   3.528465E+00   3.415887E+00   3.325212E+00   3.259054E+00   3.194451E+00   3.126882E+00   3.063645E+00   3.039029E+00   3.013986E+00   3.012031E+00   3.010992E+00   3.004439E+00   2.979250E+00   2.953144E+00   2.897825E+00   2.834724E+00   2.772646E+00   2.717834E+00   2.691858E+00   2.709700E+00   2.779085E+00   2.893562E+00   3.038409E+00   3.196706E+00   3.347518E+00   3.464940E+00   3.536365E+00   3.565268E+00   3.554565E+00   3.505167E+00   3.429461E+00   3.323550E+00   3.222486E+00   3.129642E+00   3.062964E+00   3.021080E+00   3.000877E+00   3.008851E+00   3.033712E+00   3.074896E+00   3.111454E+00   3.131446E+00   3.131865E+00   3.117051E+00   3.074571E+00   3.034727E+00   2.993698E+00   2.965342E+00   2.958107E+00   2.984904E+00   3.067123E+00   3.196710E+00   3.362536E+00   3.524234E+00   3.668248E+00   3.739170E+00   3.748812E+00   3.708098E+00   3.630060E+00   3.534053E+00   3.403694E+00   3.256073E+00   3.102078E+00   2.953292E+00   2.817468E+00   2.714588E+00   2.633989E+00   2.576873E+00   2.543834E+00   2.526071E+00   2.512486E+00   2.502591E+00   2.501403E+00   2.520750E+00   2.552687E+00   2.595567E+00   2.672181E+00   2.769349E+00   2.892708E+00   3.056234E+00   3.237152E+00   3.430026E+00   3.653038E+00   3.878236E+00   4.098039E+00   4.299675E+00   4.472576E+00   4.633500E+00   4.738919E+00   4.800889E+00   4.799899E+00   4.755255E+00   4.667036E+00   4.541883E+00   4.403358E+00   4.262672E+00   4.145164E+00   4.047169E+00   4.002218E+00   3.997811E+00   4.042970E+00   4.128132E+00   4.227042E+00   4.359507E+00   4.515138E+00   4.710972E+00   4.934780E+00   5.205021E+00   5.455365E+00   5.643387E+00   5.717341E+00   5.675272E+00   5.512707E+00   5.265738E+00   4.981347E+00   4.677453E+00   4.377706E+00   4.084525E+00   3.800890E+00   3.528854E+00   3.281083E+00   3.065352E+00   2.875186E+00   2.742929E+00   2.651855E+00   2.600051E+00   2.586518E+00   2.616594E+00   2.692589E+00   2.815922E+00   2.983711E+00   3.191511E+00   3.408185E+00   3.631813E+00   3.835983E+00   4.016235E+00   4.146080E+00   4.243740E+00   4.309570E+00   4.361632E+00   4.400222E+00   4.423230E+00   4.430732E+00   4.437665E+00   4.415926E+00   4.374488E+00   4.306859E+00   4.232168E+00   4.167887E+00   4.108149E+00   4.083786E+00   4.096136E+00   4.141077E+00   4.191842E+00   4.206785E+00   4.196702E+00   4.158464E+00   4.116837E+00   4.076222E+00   4.039383E+00   4.009680E+00
   3.896466E+00   3.808211E+00   3.706856E+00   3.617356E+00   3.544316E+00   3.483611E+00   3.426626E+00   3.386520E+00   3.348743E+00   3.305171E+00   3.237878E+00   3.162289E+00   3.060633E+00   2.958842E+00   2.861254E+00   2.788369E+00   2.738210E+00   2.722293E+00   2.739058E+00   2.785737E+00   2.847161E+00   2.944360E+00   3.081338E+00   3.263900E+00   3.476380E+00   3.718139E+00   3.983453E+00   4.264637E+00   4.516335E+00   4.716038E+00   4.849963E+00   4.915234E+00   4.877206E+00   4.796295E+00   4.626664E+00   4.407175E+00   4.159028E+00   3.904008E+00   3.670929E+00   3.491916E+00   3.347459E+00   3.228763E+00   3.124457E+00   3.028203E+00   2.943646E+00   2.872962E+00   2.827062E+00   2.791354E+00   2.786546E+00   2.800063E+00   2.824914E+00   2.847906E+00   2.864178E+00   2.863409E+00   2.830136E+00   2.784765E+00   2.741531E+00   2.725986E+00   2.748718E+00   2.821359E+00   2.940944E+00   3.095255E+00   3.255817E+00   3.401006E+00   3.504057E+00   3.550656E+00   3.540489E+00   3.482634E+00   3.396452E+00   3.283237E+00   3.157569E+00   3.024610E+00   2.914298E+00   2.824869E+00   2.781300E+00   2.772200E+00   2.795474E+00   2.836029E+00   2.895887E+00   2.947794E+00   2.992532E+00   3.008574E+00   2.996334E+00   2.955613E+00   2.894644E+00   2.837415E+00   2.787154E+00   2.764725E+00   2.784301E+00   2.852240E+00   2.985196E+00   3.145811E+00   3.331903E+00   3.492360E+00   3.601228E+00   3.640812E+00   3.616845E+00   3.548971E+00   3.454010E+00   3.323929E+00   3.169382E+00   2.996021E+00   2.833057E+00   2.695045E+00   2.574259E+00   2.488177E+00   2.434297E+00   2.393890E+00   2.381304E+00   2.367298E+00   2.370926E+00   2.385506E+00   2.416249E+00   2.466515E+00   2.530332E+00   2.616614E+00   2.714780E+00   2.835903E+00   2.982229E+00   3.155275E+00   3.350478E+00   3.571567E+00   3.813622E+00   4.059400E+00   4.280959E+00   4.464496E+00   4.609158E+00   4.704404E+00   4.741945E+00   4.729357E+00   4.662609E+00   4.552018E+00   4.400465E+00   4.236503E+00   4.082729E+00   3.944968E+00   3.856753E+00   3.807563E+00   3.816504E+00   3.887805E+00   4.005263E+00   4.150053E+00   4.329200E+00   4.553564E+00   4.811350E+00   5.114464E+00   5.422217E+00   5.737280E+00   5.978791E+00   6.084809E+00   6.043900E+00   5.855804E+00   5.551152E+00   5.188510E+00   4.810262E+00   4.451905E+00   4.092592E+00   3.748507E+00   3.424952E+00   3.138368E+00   2.889203E+00   2.700465E+00   2.550590E+00   2.445042E+00   2.391441E+00   2.380201E+00   2.412717E+00   2.497510E+00   2.634017E+00   2.831180E+00   3.049963E+00   3.291959E+00   3.531985E+00   3.766621E+00   3.958234E+00   4.113341E+00   4.209617E+00   4.281902E+00   4.319524E+00   4.339711E+00   4.337718E+00   4.335247E+00   4.303347E+00   4.281253E+00   4.231838E+00   4.189860E+00   4.155660E+00   4.130171E+00   4.139226E+00   4.185708E+00   4.259345E+00   4.341435E+00   4.394518E+00   4.416107E+00   4.386523E+00   4.323724E+00   4.237364E+00   4.156308E+00   4.092157E+00   4.036632E+00
   3.901848E+00   3.810001E+00   3.713294E+00   3.630526E+00   3.558874E+00   3.493356E+00   3.438470E+00   3.387017E+00   3.350477E+00   3.289156E+00   3.216789E+00   3.121968E+00   3.023824E+00   2.923024E+00   2.831650E+00   2.753474E+00   2.702049E+00   2.679073E+00   2.700118E+00   2.742874E+00   2.817933E+00   2.926777E+00   3.056439E+00   3.230380E+00   3.438384E+00   3.675378E+00   3.932388E+00   4.187302E+00   4.434826E+00   4.641231E+00   4.791483E+00   4.871498E+00   4.907803E+00   4.863660E+00   4.745766E+00   4.553225E+00   4.323179E+00   4.029634E+00   3.758618E+00   3.508357E+00   3.313822E+00   3.156479E+00   3.022618E+00   2.903754E+00   2.799752E+00   2.721512E+00   2.671337E+00   2.639242E+00   2.636873E+00   2.670530E+00   2.738922E+00   2.823146E+00   2.910245E+00   2.960732E+00   2.976270E+00   2.960366E+00   2.945495E+00   2.944795E+00   2.982790E+00   3.057360E+00   3.184090E+00   3.340962E+00   3.498194E+00   3.626526E+00   3.702343E+00   3.704545E+00   3.642583E+00   3.534195E+00   3.393417E+00   3.237059E+00   3.073533E+00   2.923608E+00   2.787955E+00   2.690921E+00   2.641462E+00   2.636067E+00   2.665194E+00   2.729352E+00   2.800125E+00   2.866392E+00   2.918414E+00   2.931630E+00   2.906502E+00   2.852065E+00   2.782163E+00   2.705393E+00   2.637092E+00   2.599660E+00   2.599575E+00   2.654198E+00   2.770112E+00   2.936096E+00   3.119583E+00   3.299054E+00   3.442534E+00   3.518588E+00   3.534539E+00   3.508921E+00   3.445007E+00   3.341029E+00   3.192978E+00   3.013292E+00   2.849680E+00   2.706950E+00   2.596488E+00   2.519110E+00   2.464670E+00   2.428698E+00   2.405037E+00   2.407274E+00   2.422646E+00   2.449018E+00   2.487162E+00   2.553767E+00   2.622307E+00   2.698673E+00   2.790228E+00   2.883633E+00   3.000948E+00   3.141516E+00   3.320310E+00   3.524481E+00   3.754027E+00   3.992137E+00   4.188399E+00   4.356070E+00   4.461860E+00   4.500202E+00   4.506092E+00   4.485485E+00   4.419490E+00   4.310211E+00   4.155082E+00   4.002119E+00   3.840854E+00   3.702191E+00   3.601377E+00   3.566033E+00   3.585139E+00   3.674746E+00   3.811680E+00   4.004228E+00   4.233044E+00   4.505674E+00   4.817018E+00   5.151919E+00   5.489657E+00   5.837171E+00   6.113237E+00   6.268661E+00   6.251073E+00   6.081665E+00   5.758883E+00   5.355158E+00   4.927668E+00   4.504486E+00   4.098824E+00   3.720171E+00   3.368436E+00   3.066172E+00   2.810949E+00   2.600924E+00   2.445361E+00   2.332224E+00   2.270563E+00   2.254800E+00   2.288180E+00   2.376169E+00   2.523305E+00   2.715365E+00   2.944842E+00   3.190842E+00   3.443278E+00   3.689014E+00   3.913413E+00   4.080020E+00   4.192873E+00   4.246780E+00   4.279585E+00   4.268590E+00   4.248099E+00   4.206891E+00   4.172929E+00   4.135532E+00   4.108404E+00   4.081711E+00   4.088995E+00   4.123285E+00   4.194156E+00   4.301627E+00   4.424335E+00   4.541830E+00   4.623645E+00   4.634455E+00   4.598427E+00   4.522998E+00   4.414882E+00   4.300445E+00   4.189299E+00   4.089403E+00
   3.927794E+00   3.860659E+00   3.788680E+00   3.723268E+00   3.643792E+00   3.575142E+00   3.507242E+00   3.460210E+00   3.412663E+00   3.347755E+00   3.263065E+00   3.164339E+00   3.053094E+00   2.956418E+00   2.865086E+00   2.791613E+00   2.733562E+00   2.716481E+00   2.734951E+00   2.798197E+00   2.881903E+00   2.997874E+00   3.128063E+00   3.293057E+00   3.480327E+00   3.681025E+00   3.901133E+00   4.137607E+00   4.357758E+00   4.558407E+00   4.715190E+00   4.836097E+00   4.927774E+00   4.953411E+00   4.885510E+00   4.748211E+00   4.528198E+00   4.226303E+00   3.907734E+00   3.603847E+00   3.350774E+00   3.144480E+00   2.970783E+00   2.837098E+00   2.728376E+00   2.642906E+00   2.593964E+00   2.572761E+00   2.599983E+00   2.667249E+00   2.776394E+00   2.913663E+00   3.051811E+00   3.166220E+00   3.228210E+00   3.263991E+00   3.281270E+00   3.301136E+00   3.350874E+00   3.445473E+00   3.576279E+00   3.731940E+00   3.893892E+00   4.002099E+00   4.042026E+00   3.994801E+00   3.872132E+00   3.710407E+00   3.517324E+00   3.312795E+00   3.124873E+00   2.945991E+00   2.802988E+00   2.694200E+00   2.638734E+00   2.634053E+00   2.659487E+00   2.716752E+00   2.789983E+00   2.847680E+00   2.889907E+00   2.890676E+00   2.853143E+00   2.790268E+00   2.707057E+00   2.614183E+00   2.527042E+00   2.465787E+00   2.452746E+00   2.498276E+00   2.602142E+00   2.761231E+00   2.956260E+00   3.156689E+00   3.335566E+00   3.461156E+00   3.530993E+00   3.550958E+00   3.522716E+00   3.437186E+00   3.299969E+00   3.144319E+00   2.984846E+00   2.848094E+00   2.744130E+00   2.675782E+00   2.636479E+00   2.606537E+00   2.595224E+00   2.592724E+00   2.609860E+00   2.639945E+00   2.691917E+00   2.751379E+00   2.813597E+00   2.871256E+00   2.921906E+00   2.981519E+00   3.061074E+00   3.169888E+00   3.313922E+00   3.483441E+00   3.679892E+00   3.872422E+00   4.036940E+00   4.143549E+00   4.185936E+00   4.176765E+00   4.163923E+00   4.130379E+00   4.092478E+00   4.018236E+00   3.917803E+00   3.791649E+00   3.648436E+00   3.509375E+00   3.405036E+00   3.358327E+00   3.388960E+00   3.479861E+00   3.632349E+00   3.854171E+00   4.107893E+00   4.400924E+00   4.727154E+00   5.081633E+00   5.440178E+00   5.796689E+00   6.092018E+00   6.274583E+00   6.310064E+00   6.157771E+00   5.831929E+00   5.429499E+00   4.998252E+00   4.558472E+00   4.132981E+00   3.731678E+00   3.385192E+00   3.080567E+00   2.821096E+00   2.606297E+00   2.437022E+00   2.311161E+00   2.234097E+00   2.206283E+00   2.235574E+00   2.314925E+00   2.455869E+00   2.644016E+00   2.873356E+00   3.127923E+00   3.389098E+00   3.644339E+00   3.861081E+00   4.029905E+00   4.142702E+00   4.209163E+00   4.220256E+00   4.216100E+00   4.168103E+00   4.131395E+00   4.084092E+00   4.053742E+00   4.027733E+00   4.034681E+00   4.066156E+00   4.130846E+00   4.238194E+00   4.389052E+00   4.553598E+00   4.688272E+00   4.764921E+00   4.776850E+00   4.729778E+00   4.655044E+00   4.559397E+00   4.432738E+00   4.291643E+00   4.145146E+00
   3.979251E+00   3.956118E+00   3.916142E+00   3.846217E+00   3.787328E+00   3.702362E+00   3.640487E+00   3.585324E+00   3.538635E+00   3.469901E+00   3.374666E+00   3.260749E+00   3.137064E+00   3.032607E+00   2.942998E+00   2.871641E+00   2.819659E+00   2.790903E+00   2.820192E+00   2.883673E+00   2.984621E+00   3.110609E+00   3.237203E+00   3.391633E+00   3.556858E+00   3.739952E+00   3.941088E+00   4.130172E+00   4.330243E+00   4.527943E+00   4.720980E+00   4.874883E+00   4.992505E+00   5.066645E+00   5.073210E+00   4.979075E+00   4.777931E+00   4.474712E+00   4.123267E+00   3.773165E+00   3.475935E+00   3.219142E+00   3.016187E+00   2.855151E+00   2.731653E+00   2.650817E+00   2.602356E+00   2.606571E+00   2.659079E+00   2.753878E+00   2.901742E+00   3.083464E+00   3.264556E+00   3.425215E+00   3.535499E+00   3.600501E+00   3.640530E+00   3.670458E+00   3.741687E+00   3.854748E+00   4.002867E+00   4.173316E+00   4.335421E+00   4.434033E+00   4.437091E+00   4.350697E+00   4.188135E+00   3.979306E+00   3.749033E+00   3.519909E+00   3.295329E+00   3.104281E+00   2.943695E+00   2.832666E+00   2.759950E+00   2.730464E+00   2.735514E+00   2.772088E+00   2.824137E+00   2.867049E+00   2.880606E+00   2.862956E+00   2.808668E+00   2.741992E+00   2.651403E+00   2.550921E+00   2.460175E+00   2.394085E+00   2.382330E+00   2.432552E+00   2.542881E+00   2.699260E+00   2.900784E+00   3.110610E+00   3.316517E+00   3.494467E+00   3.621077E+00   3.674408E+00   3.670932E+00   3.599914E+00   3.484275E+00   3.344340E+00   3.200655E+00   3.072386E+00   2.982409E+00   2.926469E+00   2.896244E+00   2.879906E+00   2.874461E+00   2.873743E+00   2.885985E+00   2.915009E+00   2.966001E+00   3.023204E+00   3.067013E+00   3.109093E+00   3.122802E+00   3.139597E+00   3.171086E+00   3.221554E+00   3.308927E+00   3.421332E+00   3.553735E+00   3.683463E+00   3.774867E+00   3.814614E+00   3.802958E+00   3.771842E+00   3.744479E+00   3.737174E+00   3.735940E+00   3.736478E+00   3.699514E+00   3.620451E+00   3.521426E+00   3.398337E+00   3.291835E+00   3.229636E+00   3.249653E+00   3.343443E+00   3.512669E+00   3.753582E+00   4.030291E+00   4.332570E+00   4.645496E+00   4.978282E+00   5.325344E+00   5.669882E+00   5.977723E+00   6.189530E+00   6.239200E+00   6.109747E+00   5.834094E+00   5.472077E+00   5.046765E+00   4.616895E+00   4.184845E+00   3.797677E+00   3.450940E+00   3.152935E+00   2.899204E+00   2.672812E+00   2.492074E+00   2.356954E+00   2.272418E+00   2.236278E+00   2.257936E+00   2.327094E+00   2.455425E+00   2.631963E+00   2.853961E+00   3.111012E+00   3.385848E+00   3.642947E+00   3.848583E+00   3.999726E+00   4.092013E+00   4.131492E+00   4.142519E+00   4.116146E+00   4.074590E+00   4.032557E+00   3.995514E+00   3.960463E+00   3.950102E+00   3.955645E+00   4.001174E+00   4.076646E+00   4.203585E+00   4.372872E+00   4.537787E+00   4.676245E+00   4.759728E+00   4.768755E+00   4.728526E+00   4.656264E+00   4.567128E+00   4.446742E+00   4.311416E+00   4.159080E+00
   4.043921E+00   4.084206E+00   4.071491E+00   4.037364E+00   3.961002E+00   3.885184E+00   3.813707E+00   3.759565E+00   3.693081E+00   3.604152E+00   3.480097E+00   3.350184E+00   3.221341E+00   3.114101E+00   3.027637E+00   2.968463E+00   2.913609E+00   2.900932E+00   2.924376E+00   2.989131E+00   3.088268E+00   3.214543E+00   3.342174E+00   3.478742E+00   3.627272E+00   3.797319E+00   3.965512E+00   4.147316E+00   4.341230E+00   4.550990E+00   4.755332E+00   4.953522E+00   5.103896E+00   5.216234E+00   5.242532E+00   5.178919E+00   5.008061E+00   4.735511E+00   4.380000E+00   4.003436E+00   3.651541E+00   3.363672E+00   3.126738E+00   2.945189E+00   2.819793E+00   2.736047E+00   2.707298E+00   2.717061E+00   2.787533E+00   2.909262E+00   3.080668E+00   3.272563E+00   3.458356E+00   3.628583E+00   3.748180E+00   3.826367E+00   3.874541E+00   3.941123E+00   4.036110E+00   4.175556E+00   4.366496E+00   4.565758E+00   4.748672E+00   4.855621E+00   4.847117E+00   4.723547E+00   4.529805E+00   4.300982E+00   4.056622E+00   3.805381E+00   3.577678E+00   3.378506E+00   3.201675E+00   3.065582E+00   2.967984E+00   2.905748E+00   2.886098E+00   2.880672E+00   2.896302E+00   2.904973E+00   2.900084E+00   2.859256E+00   2.798726E+00   2.724295E+00   2.643094E+00   2.555317E+00   2.475913E+00   2.430820E+00   2.431568E+00   2.497135E+00   2.613779E+00   2.782202E+00   2.976120E+00   3.193607E+00   3.412483E+00   3.608388E+00   3.763754E+00   3.838390E+00   3.843338E+00   3.785184E+00   3.673172E+00   3.547365E+00   3.416454E+00   3.299248E+00   3.212992E+00   3.165146E+00   3.149400E+00   3.144222E+00   3.148534E+00   3.160483E+00   3.179509E+00   3.208205E+00   3.260901E+00   3.311677E+00   3.341167E+00   3.346541E+00   3.325180E+00   3.288435E+00   3.258814E+00   3.245420E+00   3.260136E+00   3.298301E+00   3.354655E+00   3.410321E+00   3.442518E+00   3.444440E+00   3.415365E+00   3.382425E+00   3.375235E+00   3.390411E+00   3.445061E+00   3.502960E+00   3.535746E+00   3.519231E+00   3.462067E+00   3.369648E+00   3.284427E+00   3.227826E+00   3.242891E+00   3.322338E+00   3.490804E+00   3.741441E+00   4.034081E+00   4.338489E+00   4.636151E+00   4.931457E+00   5.239540E+00   5.556689E+00   5.846385E+00   6.059198E+00   6.142772E+00   6.062436E+00   5.839595E+00   5.501220E+00   5.102027E+00   4.674839E+00   4.269122E+00   3.885510E+00   3.559613E+00   3.277591E+00   3.027942E+00   2.793345E+00   2.600667E+00   2.452196E+00   2.351935E+00   2.308973E+00   2.313988E+00   2.382437E+00   2.499639E+00   2.668932E+00   2.871874E+00   3.122652E+00   3.385002E+00   3.627286E+00   3.814740E+00   3.943736E+00   4.011653E+00   4.035452E+00   4.031620E+00   3.990059E+00   3.960766E+00   3.941029E+00   3.915012E+00   3.893452E+00   3.875974E+00   3.878683E+00   3.914322E+00   3.979359E+00   4.088862E+00   4.229746E+00   4.382298E+00   4.501418E+00   4.581987E+00   4.594540E+00   4.576144E+00   4.527816E+00   4.442939E+00   4.360922E+00   4.255175E+00   4.139281E+00
   4.118153E+00   4.210763E+00   4.262673E+00   4.250003E+00   4.208486E+00   4.125128E+00   4.065152E+00   3.997347E+00   3.909193E+00   3.779538E+00   3.618665E+00   3.458874E+00   3.315239E+00   3.196583E+00   3.115578E+00   3.068064E+00   3.036067E+00   3.024353E+00   3.037508E+00   3.091106E+00   3.170622E+00   3.276350E+00   3.403684E+00   3.532046E+00   3.672382E+00   3.816396E+00   3.979836E+00   4.159196E+00   4.382875E+00   4.595589E+00   4.812816E+00   5.004746E+00   5.180219E+00   5.287975E+00   5.334548E+00   5.283905E+00   5.155006E+00   4.924087E+00   4.610861E+00   4.238879E+00   3.877285E+00   3.554199E+00   3.295174E+00   3.101302E+00   2.960013E+00   2.877476E+00   2.847188E+00   2.876948E+00   2.957978E+00   3.078550E+00   3.238477E+00   3.413960E+00   3.595654E+00   3.736582E+00   3.842884E+00   3.910080E+00   3.973445E+00   4.058082E+00   4.187490E+00   4.376230E+00   4.611577E+00   4.858786E+00   5.050993E+00   5.164291E+00   5.161523E+00   5.043738E+00   4.842502E+00   4.609983E+00   4.365728E+00   4.127458E+00   3.916670E+00   3.720058E+00   3.534875E+00   3.381997E+00   3.238346E+00   3.138109E+00   3.068089E+00   3.020117E+00   2.986595E+00   2.955759E+00   2.920989E+00   2.867443E+00   2.804840E+00   2.742435E+00   2.669694E+00   2.617016E+00   2.576346E+00   2.566203E+00   2.601578E+00   2.682144E+00   2.829224E+00   3.011052E+00   3.223442E+00   3.450457E+00   3.654025E+00   3.813482E+00   3.943651E+00   4.021046E+00   4.009696E+00   3.952960E+00   3.842261E+00   3.726984E+00   3.610721E+00   3.506956E+00   3.426359E+00   3.373890E+00   3.343340E+00   3.344464E+00   3.354948E+00   3.380542E+00   3.414078E+00   3.450204E+00   3.493081E+00   3.513881E+00   3.511962E+00   3.486833E+00   3.433526E+00   3.359046E+00   3.270883E+00   3.190425E+00   3.133147E+00   3.100690E+00   3.091660E+00   3.086574E+00   3.077656E+00   3.064634E+00   3.046405E+00   3.046698E+00   3.069968E+00   3.129136E+00   3.219858E+00   3.329791E+00   3.413262E+00   3.460682E+00   3.453919E+00   3.415663E+00   3.354421E+00   3.319472E+00   3.333584E+00   3.424752E+00   3.583098E+00   3.817739E+00   4.090611E+00   4.375733E+00   4.642207E+00   4.914509E+00   5.188490E+00   5.481128E+00   5.738505E+00   5.936109E+00   6.020144E+00   5.968494E+00   5.782525E+00   5.505918E+00   5.157637E+00   4.773239E+00   4.398034E+00   4.036487E+00   3.707230E+00   3.424715E+00   3.168808E+00   2.935884E+00   2.729264E+00   2.576503E+00   2.472613E+00   2.422869E+00   2.430672E+00   2.485364E+00   2.601820E+00   2.751999E+00   2.948838E+00   3.172878E+00   3.409036E+00   3.626806E+00   3.803968E+00   3.901043E+00   3.955271E+00   3.968603E+00   3.953324E+00   3.917770E+00   3.893134E+00   3.872904E+00   3.862483E+00   3.836499E+00   3.818364E+00   3.802872E+00   3.816296E+00   3.857839E+00   3.934451E+00   4.038265E+00   4.145677E+00   4.244344E+00   4.295765E+00   4.321032E+00   4.321040E+00   4.298420E+00   4.258476E+00   4.217315E+00   4.165483E+00   4.084852E+00