# LPF package for  MODFLOW-2005, generated by Flopy.
         0    -1E+30         0  
         0
         0
   1.000000E+00
         0
         0
INTERNAL               1 (200E15.6) -1 #hk layer 1                    
   3.962791E+00   3.935266E+00   3.904613E+00   3.862594E+00   3.833842E+00   3.813407E+00   3.802043E+00   3.789293E+00   3.787671E+00   3.761405E+00   3.731966E+00   3.688935E+00   3.641696E+00   3.585285E+00   3.527690E+00   3.488786E+00   3.471277E+00   3.475597E+00   3.487862E+00   3.514969E+00   3.555484E+00   3.610211E+00   3.676238E+00   3.769744E+00   3.856428E+00   3.942610E+00   4.023975E+00   4.102548E+00   4.173292E+00   4.228787E+00   4.263382E+00   4.278073E+00   4.262405E+00   4.208707E+00   4.144114E+00   4.061070E+00   3.983727E+00   3.902608E+00   3.837479E+00   3.780607E+00   3.734595E+00   3.705281E+00   3.677937E+00   3.641758E+00   3.612452E+00   3.596525E+00   3.598158E+00   3.596707E+00   3.597297E+00   3.587890E+00   3.566062E+00   3.538615E+00   3.502716E+00   3.460993E+00   3.425220E+00   3.380440E+00   3.348096E+00   3.330639E+00   3.342587E+00   3.384758E+00   3.437860E+00   3.508623E+00   3.588964E+00   3.667521E+00   3.724886E+00   3.774158E+00   3.803746E+00   3.823991E+00   3.825958E+00   3.806039E+00   3.768635E+00   3.724278E+00   3.683940E+00   3.658920E+00   3.654850E+00   3.647319E+00   3.655610E+00   3.651931E+00   3.644748E+00   3.635325E+00   3.635915E+00   3.623880E+00   3.611519E+00   3.599548E+00   3.583132E+00   3.572266E+00   3.570029E+00   3.582337E+00   3.598290E+00   3.649074E+00   3.714934E+00   3.790923E+00   3.863273E+00   3.918286E+00   3.937984E+00   3.934176E+00   3.911656E+00   3.868005E+00   3.820019E+00   3.755057E+00   3.688625E+00   3.614192E+00   3.538659E+00   3.483376E+00   3.436656E+00   3.398470E+00   3.375302E+00   3.354206E+00   3.352263E+00   3.340748E+00   3.328484E+00   3.308800E+00   3.299222E+00   3.304913E+00   3.313772E+00   3.343945E+00   3.403377E+00   3.481911E+00   3.577453E+00   3.681955E+00   3.773218E+00   3.873490E+00   3.963141E+00   4.047474E+00   4.127196E+00   4.192705E+00   4.268305E+00   4.325264E+00   4.356875E+00   4.373145E+00   4.360313E+00   4.335655E+00   4.308437E+00   4.267642E+00   4.213013E+00   4.169080E+00   4.111061E+00   4.072320E+00   4.050415E+00   4.051538E+00   4.074222E+00   4.106768E+00   4.158731E+00   4.213227E+00   4.279407E+00   4.348979E+00   4.431248E+00   4.525035E+00   4.590574E+00   4.616821E+00   4.595764E+00   4.545307E+00   4.457888E+00   4.371000E+00   4.269363E+00   4.164156E+00   4.064216E+00   3.962331E+00   3.866753E+00   3.760988E+00   3.673815E+00   3.573327E+00   3.494084E+00   3.440266E+00   3.402123E+00   3.385337E+00   3.389367E+00   3.415427E+00   3.461608E+00   3.545106E+00   3.647955E+00   3.757051E+00   3.870811E+00   3.969830E+00   4.043721E+00   4.094999E+00   4.129617E+00   4.161049E+00   4.187577E+00   4.202651E+00   4.222481E+00   4.238583E+00   4.251979E+00   4.250675E+00   4.239183E+00   4.202468E+00   4.153365E+00   4.090204E+00   4.032329E+00   3.993894E+00   3.975827E+00   3.977660E+00   3.985572E+00   4.000591E+00   4.005412E+00   4.010437E+00   4.010091E+00   3.991296E+00   3.983255E+00   3.979319E+00
   3.931089E+00   3.887723E+00   3.829774E+00   3.762572E+00   3.694495E+00   3.655448E+00   3.623434E+00   3.599648E+00   3.585379E+00   3.568964E+00   3.518094E+00   3.458852E+00   3.366191E+00   3.277571E+00   3.188999E+00   3.124316E+00   3.088104E+00   3.089459E+00   3.108891E+00   3.145959E+00   3.206949E+00   3.294816E+00   3.408866E+00   3.546150E+00   3.701270E+00   3.869360E+00   4.044139E+00   4.212817E+00   4.363759E+00   4.476670E+00   4.542594E+00   4.578381E+00   4.539348E+00   4.449951E+00   4.313891E+00   4.167074E+00   4.017114E+00   3.866725E+00   3.721570E+00   3.617613E+00   3.532499E+00   3.478036E+00   3.427112E+00   3.378661E+00   3.327441E+00   3.299927E+00   3.291925E+00   3.286022E+00   3.283303E+00   3.269867E+00   3.242271E+00   3.198351E+00   3.152102E+00   3.091702E+00   3.019234E+00   2.952992E+00   2.904675E+00   2.881286E+00   2.896791E+00   2.955786E+00   3.048234E+00   3.177399E+00   3.316424E+00   3.439368E+00   3.540890E+00   3.620220E+00   3.659795E+00   3.670886E+00   3.654529E+00   3.607790E+00   3.536849E+00   3.463125E+00   3.394954E+00   3.346767E+00   3.318451E+00   3.305976E+00   3.307043E+00   3.317562E+00   3.331060E+00   3.344960E+00   3.346455E+00   3.339916E+00   3.320501E+00   3.291731E+00   3.255696E+00   3.224239E+00   3.214389E+00   3.223353E+00   3.257029E+00   3.326818E+00   3.449626E+00   3.571635E+00   3.708066E+00   3.808100E+00   3.860763E+00   3.865732E+00   3.817276E+00   3.747925E+00   3.658650E+00   3.552888E+00   3.435888E+00   3.309076E+00   3.182580E+00   3.081848E+00   3.002564E+00   2.939387E+00   2.898863E+00   2.875432E+00   2.857712E+00   2.842493E+00   2.822996E+00   2.810392E+00   2.814400E+00   2.823913E+00   2.855684E+00   2.913203E+00   2.996957E+00   3.108413E+00   3.251810E+00   3.408336E+00   3.571142E+00   3.748747E+00   3.920222E+00   4.087218E+00   4.236618E+00   4.382105E+00   4.511999E+00   4.608434E+00   4.649011E+00   4.659456E+00   4.639464E+00   4.593935E+00   4.519366E+00   4.415859E+00   4.309716E+00   4.212620E+00   4.140175E+00   4.086744E+00   4.073787E+00   4.088603E+00   4.138936E+00   4.222741E+00   4.297362E+00   4.406926E+00   4.525866E+00   4.680994E+00   4.854638E+00   5.037928E+00   5.182635E+00   5.230422E+00   5.195450E+00   5.072701E+00   4.905293E+00   4.710574E+00   4.497593E+00   4.284914E+00   4.077520E+00   3.883892E+00   3.689849E+00   3.513528E+00   3.339514E+00   3.195343E+00   3.067473E+00   2.986584E+00   2.936131E+00   2.911279E+00   2.919503E+00   2.972037E+00   3.068700E+00   3.208369E+00   3.374364E+00   3.558599E+00   3.746936E+00   3.910096E+00   4.046066E+00   4.142720E+00   4.213741E+00   4.271172E+00   4.313568E+00   4.348461E+00   4.379757E+00   4.415144E+00   4.425475E+00   4.420686E+00   4.382536E+00   4.329207E+00   4.248282E+00   4.153548E+00   4.068922E+00   4.005445E+00   4.004534E+00   4.019409E+00   4.045406E+00   4.060105E+00   4.058475E+00   4.055203E+00   4.037196E+00   4.012001E+00   3.986865E+00   3.982393E+00
   3.911429E+00   3.831475E+00   3.749063E+00   3.665250E+00   3.598306E+00   3.527362E+00   3.481895E+00   3.447981E+00   3.426157E+00   3.389633E+00   3.342090E+00   3.261390E+00   3.174450E+00   3.070412E+00   2.974501E+00   2.897191E+00   2.853219E+00   2.845924E+00   2.866174E+00   2.912459E+00   2.976446E+00   3.079130E+00   3.215708E+00   3.387476E+00   3.576895E+00   3.793205E+00   4.037787E+00   4.276372E+00   4.495187E+00   4.657200E+00   4.768049E+00   4.801206E+00   4.762660E+00   4.652618E+00   4.500621E+00   4.293138E+00   4.082617E+00   3.863561E+00   3.680450E+00   3.529120E+00   3.416529E+00   3.325846E+00   3.259687E+00   3.195080E+00   3.127507E+00   3.064256E+00   3.039617E+00   3.014535E+00   3.012527E+00   3.011418E+00   3.004782E+00   2.979498E+00   2.953298E+00   2.897887E+00   2.834712E+00   2.772576E+00   2.717728E+00   2.691733E+00   2.709572E+00   2.778972E+00   2.893471E+00   3.038348E+00   3.196681E+00   3.347533E+00   3.464993E+00   3.536452E+00   3.565385E+00   3.554707E+00   3.505332E+00   3.429640E+00   3.323742E+00   3.222685E+00   3.129844E+00   3.063165E+00   3.021272E+00   3.001056E+00   3.009006E+00   3.033831E+00   3.074972E+00   3.111477E+00   3.131408E+00   3.131771E+00   3.116907E+00   3.074395E+00   3.034531E+00   2.993498E+00   2.965145E+00   2.957914E+00   2.984706E+00   3.066913E+00   3.196466E+00   3.362240E+00   3.523867E+00   3.667803E+00   3.738647E+00   3.748226E+00   3.707464E+00   3.629403E+00   3.533402E+00   3.403079E+00   3.255512E+00   3.101583E+00   2.952862E+00   2.817100E+00   2.714266E+00   2.633696E+00   2.576593E+00   2.543553E+00   2.525776E+00   2.512173E+00   2.502253E+00   2.501045E+00   2.520375E+00   2.552306E+00   2.595195E+00   2.671827E+00   2.769029E+00   2.892435E+00   3.056016E+00   3.236992E+00   3.429924E+00   3.652994E+00   3.878246E+00   4.098093E+00   4.299760E+00   4.472677E+00   4.633603E+00   4.739016E+00   4.800972E+00   4.799963E+00   4.755298E+00   4.667061E+00   4.541898E+00   4.403365E+00   4.262673E+00   4.145162E+00   4.047166E+00   4.002208E+00   3.997795E+00   4.042939E+00   4.128080E+00   4.226957E+00   4.359381E+00   4.514959E+00   4.710738E+00   4.934492E+00   5.204685E+00   5.455003E+00   5.643026E+00   5.717017E+00   5.675012E+00   5.512537E+00   5.265675E+00   4.981393E+00   4.677609E+00   4.377964E+00   4.084874E+00   3.801316E+00   3.529345E+00   3.281620E+00   3.065924E+00   2.875775E+00   2.743530E+00   2.652462E+00   2.600654E+00   2.587108E+00   2.617164E+00   2.693137E+00   2.816440E+00   2.984196E+00   3.191957E+00   3.408596E+00   3.632187E+00   3.836323E+00   4.016546E+00   4.146375E+00   4.244036E+00   4.309880E+00   4.361967E+00   4.400584E+00   4.423620E+00   4.431138E+00   4.438072E+00   4.416312E+00   4.374835E+00   4.307156E+00   4.232412E+00   4.168083E+00   4.108311E+00   4.083930E+00   4.096273E+00   4.141220E+00   4.192002E+00   4.206962E+00   4.196889E+00   4.158650E+00   4.117013E+00   4.076374E+00   4.039494E+00   4.009739E+00
   3.896352E+00   3.807994E+00   3.706549E+00   3.616978E+00   3.543878E+00   3.483130E+00   3.426115E+00   3.385997E+00   3.348217E+00   3.304658E+00   3.237394E+00   3.161841E+00   3.060231E+00   2.958490E+00   2.860950E+00   2.788110E+00   2.737990E+00   2.722101E+00   2.738889E+00   2.785581E+00   2.847019E+00   2.944224E+00   3.081210E+00   3.263780E+00   3.476274E+00   3.718061E+00   3.983423E+00   4.264678E+00   4.516466E+00   4.716282E+00   4.850331E+00   4.915730E+00   4.877828E+00   4.797029E+00   4.627488E+00   4.408050E+00   4.159920E+00   3.904891E+00   3.671781E+00   3.492734E+00   3.348246E+00   3.229524E+00   3.125193E+00   3.028919E+00   2.944340E+00   2.873635E+00   2.827705E+00   2.791951E+00   2.787086E+00   2.800528E+00   2.825289E+00   2.848181E+00   2.864349E+00   2.863476E+00   2.830111E+00   2.784671E+00   2.741390E+00   2.725822E+00   2.748550E+00   2.821204E+00   2.940814E+00   3.095155E+00   3.255756E+00   3.400982E+00   3.504070E+00   3.550700E+00   3.540560E+00   3.482726E+00   3.396562E+00   3.283362E+00   3.157709E+00   3.024759E+00   2.914450E+00   2.825019E+00   2.781445E+00   2.772330E+00   2.795584E+00   2.836104E+00   2.895920E+00   2.947772E+00   2.992451E+00   3.008434E+00   2.996144E+00   2.955390E+00   2.894403E+00   2.837173E+00   2.786921E+00   2.764501E+00   2.784079E+00   2.852001E+00   2.984921E+00   3.145478E+00   3.331492E+00   3.491854E+00   3.600628E+00   3.640127E+00   3.616102E+00   3.548197E+00   3.453238E+00   3.323198E+00   3.168712E+00   2.995432E+00   2.832547E+00   2.694604E+00   2.573871E+00   2.487824E+00   2.433957E+00   2.393549E+00   2.380945E+00   2.366914E+00   2.370512E+00   2.385064E+00   2.415786E+00   2.466040E+00   2.529861E+00   2.616163E+00   2.714365E+00   2.835537E+00   2.981924E+00   3.155038E+00   3.350311E+00   3.571473E+00   3.813594E+00   4.059428E+00   4.281033E+00   4.464597E+00   4.609270E+00   4.704514E+00   4.742039E+00   4.729429E+00   4.662660E+00   4.552052E+00   4.400488E+00   4.236518E+00   4.082741E+00   3.944975E+00   3.856755E+00   3.807555E+00   3.816489E+00   3.887768E+00   4.005197E+00   4.149945E+00   4.329034E+00   4.553328E+00   4.811035E+00   5.114071E+00   5.421755E+00   5.736778E+00   5.978282E+00   6.084341E+00   6.043519E+00   5.855545E+00   5.551033E+00   5.188530E+00   4.810415E+00   4.452182E+00   4.092971E+00   3.748971E+00   3.425480E+00   3.138941E+00   2.889805E+00   2.701090E+00   2.551224E+00   2.445680E+00   2.392075E+00   2.380825E+00   2.413325E+00   2.498099E+00   2.634581E+00   2.831713E+00   3.050457E+00   3.292412E+00   3.532394E+00   3.766989E+00   3.958568E+00   4.113657E+00   4.209927E+00   4.282224E+00   4.319873E+00   4.340091E+00   4.338119E+00   4.335663E+00   4.303757E+00   4.281637E+00   4.232179E+00   4.190150E+00   4.155893E+00   4.130359E+00   4.139381E+00   4.185845E+00   4.259486E+00   4.341594E+00   4.394707E+00   4.416324E+00   4.386759E+00   4.323966E+00   4.237594E+00   4.156505E+00   4.092301E+00   4.036705E+00
   3.901714E+00   3.809744E+00   3.712934E+00   3.630078E+00   3.558363E+00   3.492800E+00   3.437891E+00   3.386435E+00   3.349905E+00   3.288612E+00   3.216286E+00   3.121517E+00   3.023432E+00   2.922690E+00   2.831372E+00   2.753246E+00   2.701860E+00   2.678916E+00   2.699982E+00   2.742756E+00   2.817824E+00   2.926672E+00   3.056344E+00   3.230294E+00   3.438318E+00   3.675349E+00   3.932416E+00   4.187418E+00   4.435055E+00   4.641597E+00   4.792006E+00   4.872181E+00   4.908641E+00   4.864635E+00   4.746844E+00   4.554359E+00   4.324325E+00   4.030739E+00   3.759658E+00   3.509320E+00   3.314718E+00   3.157316E+00   3.023408E+00   2.904505E+00   2.800471E+00   2.722198E+00   2.671988E+00   2.639848E+00   2.637421E+00   2.671005E+00   2.739312E+00   2.823436E+00   2.910427E+00   2.960802E+00   2.976233E+00   2.960249E+00   2.945318E+00   2.944586E+00   2.982568E+00   3.057147E+00   3.183896E+00   3.340793E+00   3.498063E+00   3.626428E+00   3.702277E+00   3.704509E+00   3.642565E+00   3.534196E+00   3.393431E+00   3.237088E+00   3.073576E+00   2.923663E+00   2.788018E+00   2.690988E+00   2.641529E+00   2.636126E+00   2.665237E+00   2.729364E+00   2.800097E+00   2.866315E+00   2.918278E+00   2.931445E+00   2.906273E+00   2.851808E+00   2.781893E+00   2.705128E+00   2.636843E+00   2.599425E+00   2.599345E+00   2.653956E+00   2.769837E+00   2.935764E+00   3.119168E+00   3.298536E+00   3.441906E+00   3.517863E+00   3.533740E+00   3.508079E+00   3.444159E+00   3.340211E+00   3.192223E+00   3.012624E+00   2.849095E+00   2.706437E+00   2.596030E+00   2.518686E+00   2.464259E+00   2.428283E+00   2.404603E+00   2.406810E+00   2.422146E+00   2.448485E+00   2.486603E+00   2.553189E+00   2.621730E+00   2.698120E+00   2.789713E+00   2.883173E+00   3.000556E+00   3.141201E+00   3.320070E+00   3.524318E+00   3.753937E+00   3.992112E+00   4.188428E+00   4.356137E+00   4.461944E+00   4.500287E+00   4.506165E+00   4.485541E+00   4.419528E+00   4.310235E+00   4.155098E+00   4.002131E+00   3.840864E+00   3.702200E+00   3.601380E+00   3.566028E+00   3.585121E+00   3.674706E+00   3.811604E+00   4.004099E+00   4.232846E+00   4.505390E+00   4.816642E+00   5.151451E+00   5.489118E+00   5.836581E+00   6.112638E+00   6.268100E+00   6.250609E+00   6.081335E+00   5.758707E+00   5.355137E+00   4.927795E+00   4.504744E+00   4.099185E+00   3.720619E+00   3.368950E+00   3.066733E+00   2.811542E+00   2.601537E+00   2.445984E+00   2.332851E+00   2.271185E+00   2.255414E+00   2.288780E+00   2.376751E+00   2.523866E+00   2.715896E+00   2.945335E+00   3.191286E+00   3.443668E+00   3.689358E+00   3.913715E+00   4.080294E+00   4.193136E+00   4.247048E+00   4.279873E+00   4.268900E+00   4.248426E+00   4.207229E+00   4.173256E+00   4.135831E+00   4.108664E+00   4.081926E+00   4.089165E+00   4.123416E+00   4.194265E+00   4.301731E+00   4.424457E+00   4.541983E+00   4.623845E+00   4.634699E+00   4.598705E+00   4.523288E+00   4.415161E+00   4.300682E+00   4.189469E+00   4.089489E+00
   3.927647E+00   3.860377E+00   3.788279E+00   3.722772E+00   3.643230E+00   3.574541E+00   3.506626E+00   3.459601E+00   3.412081E+00   3.347216E+00   3.262581E+00   3.163919E+00   3.052742E+00   2.956130E+00   2.864858E+00   2.791436E+00   2.733427E+00   2.716378E+00   2.734869E+00   2.798125E+00   2.881837E+00   2.997813E+00   3.128009E+00   3.293013E+00   3.480306E+00   3.681052E+00   3.901228E+00   4.137803E+00   4.358085E+00   4.558897E+00   4.715863E+00   4.836956E+00   4.928812E+00   4.954612E+00   4.886834E+00   4.749605E+00   4.529591E+00   4.227629E+00   3.908953E+00   3.604948E+00   3.351765E+00   3.145375E+00   2.971601E+00   2.837857E+00   2.729089E+00   2.643580E+00   2.594601E+00   2.573357E+00   2.600534E+00   2.667740E+00   2.776807E+00   2.913980E+00   3.052016E+00   3.166305E+00   3.228176E+00   3.263857E+00   3.281057E+00   3.300875E+00   3.350590E+00   3.445184E+00   3.576000E+00   3.731681E+00   3.893657E+00   4.001889E+00   4.041839E+00   3.994631E+00   3.871979E+00   3.710269E+00   3.517203E+00   3.312691E+00   3.124788E+00   2.945927E+00   2.802941E+00   2.694168E+00   2.638712E+00   2.634030E+00   2.659456E+00   2.716700E+00   2.789899E+00   2.847555E+00   2.889735E+00   2.890459E+00   2.852891E+00   2.789992E+00   2.706778E+00   2.613915E+00   2.526792E+00   2.465556E+00   2.452520E+00   2.498039E+00   2.601874E+00   2.760906E+00   2.955849E+00   3.156171E+00   3.334928E+00   3.460411E+00   3.530160E+00   3.550068E+00   3.521807E+00   3.436301E+00   3.299140E+00   3.143569E+00   2.984181E+00   2.847503E+00   2.743592E+00   2.675275E+00   2.635982E+00   2.606034E+00   2.594698E+00   2.592165E+00   2.609265E+00   2.639315E+00   2.691255E+00   2.750698E+00   2.812917E+00   2.870603E+00   2.921302E+00   2.980978E+00   3.060607E+00   3.169500E+00   3.313614E+00   3.483211E+00   3.679736E+00   3.872328E+00   4.036901E+00   4.143549E+00   4.185959E+00   4.176794E+00   4.163946E+00   4.130388E+00   4.092476E+00   4.018226E+00   3.917788E+00   3.791637E+00   3.648427E+00   3.509368E+00   3.405027E+00   3.358313E+00   3.388933E+00   3.479809E+00   3.632266E+00   3.854034E+00   4.107683E+00   4.400620E+00   4.726754E+00   5.081141E+00   5.439606E+00   5.796067E+00   6.091392E+00   6.274004E+00   6.309581E+00   6.157422E+00   5.831728E+00   5.429454E+00   4.998352E+00   4.558692E+00   4.133305E+00   3.732083E+00   3.385664E+00   3.081090E+00   2.821653E+00   2.606877E+00   2.437612E+00   2.311752E+00   2.234684E+00   2.206859E+00   2.236135E+00   2.315465E+00   2.456388E+00   2.644506E+00   2.873803E+00   3.128319E+00   3.389434E+00   3.644614E+00   3.861302E+00   4.030083E+00   4.142857E+00   4.209312E+00   4.220412E+00   4.216270E+00   4.168284E+00   4.131581E+00   4.084268E+00   4.053896E+00   4.027855E+00   4.034772E+00   4.066219E+00   4.130887E+00   4.238235E+00   4.389109E+00   4.553689E+00   4.688417E+00   4.765126E+00   4.777113E+00   4.730084E+00   4.655373E+00   4.559712E+00   4.433006E+00   4.291834E+00   4.145246E+00
   3.979099E+00   3.955824E+00   3.915725E+00   3.845706E+00   3.786748E+00   3.701748E+00   3.639866E+00   3.584718E+00   3.538066E+00   3.469388E+00   3.374219E+00   3.260379E+00   3.136770E+00   3.032385E+00   2.942840E+00   2.871536E+00   2.819593E+00   2.790867E+00   2.820175E+00   2.883666E+00   2.984615E+00   3.110603E+00   3.237202E+00   3.391642E+00   3.556895E+00   3.740037E+00   3.941253E+00   4.130449E+00   4.330669E+00   4.528545E+00   4.721783E+00   4.875893E+00   4.993721E+00   5.068048E+00   5.074756E+00   4.980695E+00   4.779542E+00   4.476228E+00   4.124636E+00   3.774371E+00   3.476990E+00   3.220065E+00   3.017007E+00   2.855893E+00   2.732338E+00   2.651465E+00   2.602973E+00   2.607162E+00   2.659636E+00   2.754391E+00   2.902192E+00   3.083829E+00   3.264814E+00   3.425347E+00   3.535503E+00   3.600384E+00   3.640314E+00   3.670172E+00   3.741356E+00   3.854390E+00   4.002498E+00   4.172943E+00   4.335051E+00   4.433669E+00   4.436734E+00   4.350351E+00   4.187803E+00   3.978991E+00   3.748744E+00   3.519649E+00   3.295100E+00   3.104086E+00   2.943532E+00   2.832532E+00   2.759839E+00   2.730367E+00   2.735424E+00   2.771989E+00   2.824016E+00   2.866901E+00   2.880424E+00   2.862737E+00   2.808419E+00   2.741727E+00   2.651134E+00   2.550663E+00   2.459931E+00   2.393855E+00   2.382102E+00   2.432308E+00   2.542605E+00   2.698919E+00   2.900359E+00   3.110073E+00   3.315858E+00   3.493690E+00   3.620199E+00   3.673467E+00   3.669965E+00   3.598965E+00   3.483378E+00   3.343517E+00   3.199909E+00   3.071710E+00   2.981785E+00   2.925874E+00   2.895657E+00   2.879310E+00   2.873842E+00   2.873091E+00   2.885298E+00   2.914286E+00   2.965245E+00   3.022431E+00   3.066247E+00   3.108356E+00   3.122125E+00   3.138990E+00   3.170558E+00   3.221115E+00   3.308569E+00   3.421051E+00   3.553522E+00   3.683311E+00   3.774765E+00   3.814548E+00   3.802911E+00   3.771804E+00   3.744437E+00   3.737128E+00   3.735886E+00   3.736415E+00   3.699448E+00   3.620391E+00   3.521374E+00   3.398294E+00   3.291799E+00   3.229602E+00   3.249613E+00   3.343386E+00   3.512580E+00   3.753447E+00   4.030085E+00   4.332279E+00   4.645118E+00   4.977821E+00   5.324818E+00   5.669322E+00   5.977167E+00   6.189015E+00   6.238779E+00   6.109450E+00   5.833934E+00   5.472053E+00   5.046867E+00   4.617101E+00   4.185139E+00   3.798045E+00   3.451368E+00   3.153408E+00   2.899712E+00   2.673340E+00   2.492610E+00   2.357491E+00   2.272949E+00   2.236797E+00   2.258438E+00   2.327576E+00   2.455880E+00   2.632383E+00   2.854334E+00   3.111326E+00   3.386096E+00   3.643123E+00   3.848689E+00   3.999773E+00   4.092024E+00   4.131484E+00   4.142506E+00   4.116135E+00   4.074584E+00   4.032554E+00   3.995509E+00   3.960443E+00   3.950069E+00   3.955599E+00   4.001122E+00   4.076597E+00   4.203556E+00   4.372883E+00   4.537860E+00   4.676387E+00   4.759947E+00   4.769043E+00   4.728866E+00   4.656625E+00   4.567475E+00   4.447038E+00   4.311629E+00   4.159188E+00
   4.043777E+00   4.083922E+00   4.071084E+00   4.036863E+00   3.960443E+00   3.884596E+00   3.813119E+00   3.759000E+00   3.692557E+00   3.603691E+00   3.479718E+00   3.349888E+00   3.221127E+00   3.113961E+00   3.027564E+00   2.968443E+00   2.913628E+00   2.900976E+00   2.924435E+00   2.989196E+00   3.088332E+00   3.214601E+00   3.342232E+00   3.478808E+00   3.627363E+00   3.797462E+00   3.965736E+00   4.147659E+00   4.341725E+00   4.551672E+00   4.756226E+00   4.954647E+00   5.105241E+00   5.217782E+00   5.244224E+00   5.180689E+00   5.009813E+00   4.737154E+00   4.381464E+00   4.004703E+00   3.652613E+00   3.364584E+00   3.127529E+00   2.945892E+00   2.820438E+00   2.736659E+00   2.707895E+00   2.717645E+00   2.788102E+00   2.909810E+00   3.081176E+00   3.273006E+00   3.458701E+00   3.628809E+00   3.748271E+00   3.826325E+00   3.874384E+00   3.940872E+00   4.035783E+00   4.175168E+00   4.366060E+00   4.565283E+00   4.748166E+00   4.855088E+00   4.846576E+00   4.723006E+00   4.529269E+00   4.300469E+00   4.056139E+00   3.804943E+00   3.577290E+00   3.378168E+00   3.201392E+00   3.065351E+00   2.967798E+00   2.905598E+00   2.885971E+00   2.880556E+00   2.896179E+00   2.904833E+00   2.899919E+00   2.859062E+00   2.798508E+00   2.724056E+00   2.642846E+00   2.555070E+00   2.475672E+00   2.430580E+00   2.431319E+00   2.496862E+00   2.613462E+00   2.781817E+00   2.975643E+00   3.193017E+00   3.411768E+00   3.607555E+00   3.762825E+00   3.837401E+00   3.842332E+00   3.784196E+00   3.672238E+00   3.546497E+00   3.415657E+00   3.298512E+00   3.212305E+00   3.164487E+00   3.148747E+00   3.143558E+00   3.147847E+00   3.159764E+00   3.178756E+00   3.207423E+00   3.260088E+00   3.310851E+00   3.340353E+00   3.345764E+00   3.324468E+00   3.287803E+00   3.258272E+00   3.244971E+00   3.259769E+00   3.298007E+00   3.354423E+00   3.410140E+00   3.442377E+00   3.444328E+00   3.415268E+00   3.382332E+00   3.375140E+00   3.390307E+00   3.444946E+00   3.502837E+00   3.535622E+00   3.519112E+00   3.461960E+00   3.369561E+00   3.284356E+00   3.227770E+00   3.242839E+00   3.322284E+00   3.490729E+00   3.741321E+00   4.033904E+00   4.338240E+00   4.635834E+00   4.931078E+00   5.239119E+00   5.556254E+00   5.845967E+00   6.058833E+00   6.142492E+00   6.062270E+00   5.839544E+00   5.501283E+00   5.102185E+00   4.675078E+00   4.269426E+00   3.885871E+00   3.560017E+00   3.278026E+00   3.028402E+00   2.793818E+00   2.601144E+00   2.452668E+00   2.352394E+00   2.309414E+00   2.314410E+00   2.382835E+00   2.500006E+00   2.669259E+00   2.872147E+00   3.122857E+00   3.385131E+00   3.627332E+00   3.814701E+00   3.943626E+00   4.011495E+00   4.035263E+00   4.031418E+00   3.989857E+00   3.960567E+00   3.940837E+00   3.914821E+00   3.893265E+00   3.875794E+00   3.878518E+00   3.914174E+00   3.979242E+00   4.088791E+00   4.229738E+00   4.382370E+00   4.501580E+00   4.582235E+00   4.594864E+00   4.576517E+00   4.528206E+00   4.443307E+00   4.361233E+00   4.255397E+00   4.139394E+00
   4.118023E+00   4.210500E+00   4.262297E+00   4.249540E+00   4.207970E+00   4.124588E+00   4.064619E+00   3.996840E+00   3.908735E+00   3.779150E+00   3.618363E+00   3.458662E+00   3.315112E+00   3.196534E+00   3.115600E+00   3.068140E+00   3.036180E+00   3.024490E+00   3.037654E+00   3.091254E+00   3.170766E+00   3.276488E+00   3.403820E+00   3.532184E+00   3.672544E+00   3.816602E+00   3.980123E+00   4.159600E+00   4.383433E+00   4.596332E+00   4.813779E+00   5.005931E+00   5.181631E+00   5.289577E+00   5.336290E+00   5.285703E+00   5.156781E+00   4.925746E+00   4.612341E+00   4.240139E+00   3.878332E+00   3.555070E+00   3.295916E+00   3.101955E+00   2.960613E+00   2.878050E+00   2.847760E+00   2.877527E+00   2.958565E+00   3.079135E+00   3.239047E+00   3.414489E+00   3.596110E+00   3.736931E+00   3.843107E+00   3.910168E+00   3.973404E+00   4.057924E+00   4.187225E+00   4.375865E+00   4.611122E+00   4.858246E+00   5.050384E+00   5.163624E+00   5.160817E+00   5.043013E+00   4.841778E+00   4.609282E+00   4.365070E+00   4.126854E+00   3.916127E+00   3.719584E+00   3.534476E+00   3.381673E+00   3.238098E+00   3.137923E+00   3.067951E+00   3.020007E+00   2.986496E+00   2.955655E+00   2.920866E+00   2.867295E+00   2.804663E+00   2.742233E+00   2.669473E+00   2.616781E+00   2.576098E+00   2.565938E+00   2.601286E+00   2.681814E+00   2.828832E+00   3.010576E+00   3.222863E+00   3.449762E+00   3.653210E+00   3.812566E+00   3.942659E+00   4.020015E+00   4.008665E+00   3.951959E+00   3.841316E+00   3.726104E+00   3.609907E+00   3.506199E+00   3.425645E+00   3.373201E+00   3.342660E+00   3.343774E+00   3.354236E+00   3.379800E+00   3.413307E+00   3.449408E+00   3.492267E+00   3.513069E+00   3.511173E+00   3.486093E+00   3.432853E+00   3.358456E+00   3.270385E+00   3.190014E+00   3.132814E+00   3.100422E+00   3.091442E+00   3.086396E+00   3.077503E+00   3.064496E+00   3.046271E+00   3.046562E+00   3.069827E+00   3.128984E+00   3.219692E+00   3.329616E+00   3.413082E+00   3.460508E+00   3.453761E+00   3.415530E+00   3.354319E+00   3.319394E+00   3.333524E+00   3.424703E+00   3.583042E+00   3.817664E+00   4.090492E+00   4.375569E+00   4.641997E+00   4.914265E+00   5.188235E+00   5.480880E+00   5.738292E+00   5.935951E+00   6.020068E+00   5.968513E+00   5.782641E+00   5.506124E+00   5.157918E+00   4.773573E+00   4.398404E+00   4.036886E+00   3.707645E+00   3.425140E+00   3.169235E+00   2.936307E+00   2.729679E+00   2.576901E+00   2.472990E+00   2.423221E+00   2.430998E+00   2.485659E+00   2.602076E+00   2.752208E+00   2.948983E+00   3.172948E+00   3.409021E+00   3.626696E+00   3.803768E+00   3.900766E+00   3.954937E+00   3.968235E+00   3.952941E+00   3.917387E+00   3.892760E+00   3.872545E+00   3.862139E+00   3.836176E+00   3.818071E+00   3.802623E+00   3.816095E+00   3.857696E+00   3.934377E+00   4.038271E+00   4.145775E+00   4.244537E+00   4.296050E+00   4.321390E+00   4.321438E+00   4.298825E+00   4.258854E+00   4.217631E+00   4.165709E+00   4.084967E+00