# LPF package for  MODFLOW-2005, generated by Flopy.
         0    -1E+30         0  
         0
         0
   1.000000E+00
         0
         0
INTERNAL               1 (200E15.6) -1 #hk layer 1                    
   3.962797E+00   3.935276E+00   3.904629E+00   3.862620E+00   3.833880E+00   3.813456E+00   3.802099E+00   3.789353E+00   3.787731E+00   3.761461E+00   3.732017E+00   3.688978E+00   3.641728E+00   3.585303E+00   3.527693E+00   3.488778E+00   3.471260E+00   3.475570E+00   3.487824E+00   3.514926E+00   3.555444E+00   3.610181E+00   3.676222E+00   3.769740E+00   3.856438E+00   3.942634E+00   4.024015E+00   4.102597E+00   4.173351E+00   4.228850E+00   4.263436E+00   4.278105E+00   4.262405E+00   4.208666E+00   4.144023E+00   4.060926E+00   3.983530E+00   3.902365E+00   3.837197E+00   3.780290E+00   3.734248E+00   3.704909E+00   3.677548E+00   3.641356E+00   3.612043E+00   3.596122E+00   3.597771E+00   3.596351E+00   3.596986E+00   3.587635E+00   3.565865E+00   3.538478E+00   3.502633E+00   3.460965E+00   3.425242E+00   3.380511E+00   3.348210E+00   3.330786E+00   3.342759E+00   3.384948E+00   3.438056E+00   3.508815E+00   3.589143E+00   3.667683E+00   3.725027E+00   3.774274E+00   3.803834E+00   3.824045E+00   3.825973E+00   3.806016E+00   3.768580E+00   3.724191E+00   3.683821E+00   3.658771E+00   3.654676E+00   3.647123E+00   3.655405E+00   3.651731E+00   3.644566E+00   3.635170E+00   3.635794E+00   3.623795E+00   3.611470E+00   3.599525E+00   3.583128E+00   3.572272E+00   3.570043E+00   3.582355E+00   3.598319E+00   3.649113E+00   3.714984E+00   3.790987E+00   3.863353E+00   3.918374E+00   3.938079E+00   3.934279E+00   3.911761E+00   3.868115E+00   3.820129E+00   3.755162E+00   3.688719E+00   3.614273E+00   3.538726E+00   3.483424E+00   3.436687E+00   3.398491E+00   3.375316E+00   3.354218E+00   3.352272E+00   3.340758E+00   3.328500E+00   3.308819E+00   3.299246E+00   3.304941E+00   3.313800E+00   3.343967E+00   3.403390E+00   3.481916E+00   3.577454E+00   3.681951E+00   3.773211E+00   3.873476E+00   3.963121E+00   4.047447E+00   4.127168E+00   4.192672E+00   4.268263E+00   4.325209E+00   4.356808E+00   4.373067E+00   4.360229E+00   4.335568E+00   4.308347E+00   4.267550E+00   4.212920E+00   4.168993E+00   4.110983E+00   4.072254E+00   4.050359E+00   4.051494E+00   4.074193E+00   4.106761E+00   4.158747E+00   4.213267E+00   4.279470E+00   4.349061E+00   4.431347E+00   4.525145E+00   4.590683E+00   4.616918E+00   4.595840E+00   4.545353E+00   4.457902E+00   4.370980E+00   4.269312E+00   4.164081E+00   4.064116E+00   3.962211E+00   3.866619E+00   3.760845E+00   3.673667E+00   3.573180E+00   3.493937E+00   3.440124E+00   3.401984E+00   3.385202E+00   3.389237E+00   3.415301E+00   3.461488E+00   3.544995E+00   3.647851E+00   3.756951E+00   3.870708E+00   3.969720E+00   4.043599E+00   4.094859E+00   4.129451E+00   4.160848E+00   4.187337E+00   4.202373E+00   4.222175E+00   4.238253E+00   4.251627E+00   4.250309E+00   4.238811E+00   4.202098E+00   4.153004E+00   4.089856E+00   4.031996E+00   3.993574E+00   3.975517E+00   3.977361E+00   3.985287E+00   4.000324E+00   4.005163E+00   4.010216E+00   4.009900E+00   3.991142E+00   3.983147E+00   3.979264E+00
   3.931105E+00   3.887754E+00   3.829819E+00   3.762639E+00   3.694583E+00   3.655553E+00   3.623552E+00   3.599772E+00   3.585494E+00   3.569066E+00   3.518177E+00   3.458916E+00   3.366232E+00   3.277590E+00   3.188996E+00   3.124294E+00   3.088065E+00   3.089404E+00   3.108823E+00   3.145889E+00   3.206885E+00   3.294771E+00   3.408844E+00   3.546149E+00   3.701296E+00   3.869413E+00   4.044218E+00   4.212915E+00   4.363878E+00   4.476798E+00   4.542709E+00   4.578452E+00   4.539354E+00   4.449873E+00   4.313715E+00   4.166790E+00   4.016730E+00   3.866260E+00   3.721041E+00   3.617031E+00   3.531877E+00   3.477376E+00   3.426423E+00   3.377952E+00   3.326730E+00   3.299223E+00   3.291249E+00   3.285399E+00   3.282757E+00   3.269414E+00   3.241921E+00   3.198106E+00   3.151958E+00   3.091653E+00   3.019275E+00   2.953113E+00   2.904864E+00   2.881527E+00   2.897076E+00   2.956100E+00   3.048569E+00   3.177740E+00   3.316754E+00   3.439674E+00   3.541161E+00   3.620444E+00   3.659966E+00   3.670995E+00   3.654570E+00   3.607768E+00   3.536767E+00   3.462981E+00   3.394750E+00   3.346510E+00   3.318149E+00   3.305645E+00   3.306695E+00   3.317220E+00   3.330737E+00   3.344681E+00   3.346232E+00   3.339761E+00   3.320410E+00   3.291694E+00   3.255698E+00   3.224267E+00   3.214431E+00   3.223404E+00   3.257091E+00   3.326900E+00   3.449730E+00   3.571769E+00   3.708228E+00   3.808286E+00   3.860965E+00   3.865947E+00   3.817497E+00   3.748144E+00   3.658863E+00   3.553082E+00   3.436053E+00   3.309207E+00   3.182680E+00   3.081917E+00   3.002606E+00   2.939411E+00   2.898878E+00   2.875439E+00   2.857714E+00   2.842499E+00   2.823012E+00   2.810418E+00   2.814434E+00   2.823956E+00   2.855729E+00   2.913244E+00   2.996991E+00   3.108439E+00   3.251830E+00   3.408350E+00   3.571150E+00   3.748748E+00   3.920209E+00   4.087194E+00   4.236583E+00   4.382050E+00   4.511910E+00   4.608308E+00   4.648862E+00   4.659293E+00   4.639292E+00   4.593755E+00   4.519184E+00   4.415675E+00   4.309540E+00   4.212457E+00   4.140027E+00   4.086615E+00   4.073679E+00   4.088523E+00   4.138887E+00   4.222723E+00   4.297386E+00   4.407000E+00   4.525991E+00   4.681167E+00   4.854851E+00   5.038165E+00   5.182878E+00   5.230636E+00   5.195619E+00   5.072807E+00   4.905334E+00   4.710548E+00   4.497510E+00   4.284786E+00   4.077354E+00   3.883688E+00   3.689626E+00   3.513289E+00   3.339271E+00   3.195097E+00   3.067231E+00   2.986348E+00   2.935907E+00   2.911067E+00   2.919302E+00   2.971843E+00   3.068517E+00   3.208196E+00   3.374201E+00   3.558436E+00   3.746768E+00   3.909913E+00   4.045863E+00   4.142481E+00   4.213448E+00   4.270804E+00   4.313123E+00   4.347937E+00   4.379168E+00   4.414493E+00   4.424777E+00   4.419956E+00   4.381797E+00   4.328473E+00   4.247568E+00   4.152861E+00   4.068268E+00   4.004823E+00   4.003935E+00   4.018831E+00   4.044853E+00   4.059585E+00   4.057998E+00   4.054775E+00   4.036829E+00   4.011707E+00   3.986660E+00   3.982288E+00
   3.911461E+00   3.831537E+00   3.749155E+00   3.665371E+00   3.598454E+00   3.527529E+00   3.482075E+00   3.448164E+00   3.426327E+00   3.389778E+00   3.342203E+00   3.261472E+00   3.174495E+00   3.070427E+00   2.974487E+00   2.897152E+00   2.853157E+00   2.845842E+00   2.866076E+00   2.912359E+00   2.976356E+00   3.079062E+00   3.215668E+00   3.387470E+00   3.576931E+00   3.793285E+00   4.037905E+00   4.276520E+00   4.495365E+00   4.657391E+00   4.768219E+00   4.801315E+00   4.762669E+00   4.652499E+00   4.500355E+00   4.292722E+00   4.082066E+00   3.862903E+00   3.679711E+00   3.528322E+00   3.415688E+00   3.324971E+00   3.258779E+00   3.194155E+00   3.126582E+00   3.063356E+00   3.038757E+00   3.013745E+00   3.011827E+00   3.010828E+00   3.004314E+00   2.979161E+00   2.953089E+00   2.897810E+00   2.834756E+00   2.772727E+00   2.717968E+00   2.692044E+00   2.709942E+00   2.779383E+00   2.893912E+00   3.038805E+00   3.197140E+00   3.347976E+00   3.465395E+00   3.536796E+00   3.565659E+00   3.554898E+00   3.505433E+00   3.429651E+00   3.323665E+00   3.222522E+00   3.129604E+00   3.062854E+00   3.020908E+00   3.000652E+00   3.008581E+00   3.033405E+00   3.074568E+00   3.111120E+00   3.131124E+00   3.131569E+00   3.116789E+00   3.074352E+00   3.034541E+00   2.993547E+00   2.965216E+00   2.958001E+00   2.984810E+00   3.067039E+00   3.196622E+00   3.362433E+00   3.524101E+00   3.668074E+00   3.738945E+00   3.748545E+00   3.707786E+00   3.629714E+00   3.533688E+00   3.403330E+00   3.255717E+00   3.101737E+00   2.952969E+00   2.817164E+00   2.714297E+00   2.633707E+00   2.576591E+00   2.543545E+00   2.525770E+00   2.512176E+00   2.502273E+00   2.501079E+00   2.520425E+00   2.552366E+00   2.595264E+00   2.671902E+00   2.769105E+00   2.892508E+00   3.056084E+00   3.237056E+00   3.429986E+00   3.653043E+00   3.878273E+00   4.098094E+00   4.299736E+00   4.472616E+00   4.633493E+00   4.738853E+00   4.800766E+00   4.799729E+00   4.755048E+00   4.666801E+00   4.541629E+00   4.403092E+00   4.262411E+00   4.144921E+00   4.046950E+00   4.002023E+00   3.997647E+00   4.042829E+00   4.128009E+00   4.226933E+00   4.359417E+00   4.515068E+00   4.710924E+00   4.934753E+00   5.205014E+00   5.455380E+00   5.643416E+00   5.717376E+00   5.675306E+00   5.512738E+00   5.265770E+00   4.981390E+00   4.677525E+00   4.377819E+00   4.084681E+00   3.801086E+00   3.529088E+00   3.281348E+00   3.065648E+00   2.875502E+00   2.743260E+00   2.652198E+00   2.600401E+00   2.586871E+00   2.616940E+00   2.692924E+00   2.816242E+00   2.984012E+00   3.191783E+00   3.408425E+00   3.632009E+00   3.836129E+00   4.016323E+00   4.146100E+00   4.243683E+00   4.309428E+00   4.361400E+00   4.399900E+00   4.422831E+00   4.430259E+00   4.437118E+00   4.415314E+00   4.373820E+00   4.306153E+00   4.231432E+00   4.167136E+00   4.107403E+00   4.083055E+00   4.095423E+00   4.140393E+00   4.191201E+00   4.206208E+00   4.196195E+00   4.158036E+00   4.116483E+00   4.075947E+00   4.039190E+00   4.009582E+00
   3.896402E+00   3.808095E+00   3.706696E+00   3.617163E+00   3.544090E+00   3.483361E+00   3.426351E+00   3.386225E+00   3.348422E+00   3.304827E+00   3.237518E+00   3.161919E+00   3.060268E+00   2.958490E+00   2.860917E+00   2.788047E+00   2.737901E+00   2.721988E+00   2.738761E+00   2.785451E+00   2.846902E+00   2.944133E+00   3.081154E+00   3.263771E+00   3.476321E+00   3.718167E+00   3.983582E+00   4.264883E+00   4.516705E+00   4.716528E+00   4.850543E+00   4.915862E+00   4.877833E+00   4.796870E+00   4.627144E+00   4.407530E+00   4.159245E+00   3.904092E+00   3.670899E+00   3.491789E+00   3.347255E+00   3.228503E+00   3.124156E+00   3.027878E+00   2.943309E+00   2.872632E+00   2.826751E+00   2.791074E+00   2.786303E+00   2.799857E+00   2.824746E+00   2.847774E+00   2.864088E+00   2.863366E+00   2.830149E+00   2.784843E+00   2.741681E+00   2.726210E+00   2.749012E+00   2.821724E+00   2.941374E+00   3.095741E+00   3.256349E+00   3.401563E+00   3.504612E+00   3.551181E+00   3.540954E+00   3.483019E+00   3.396746E+00   3.283431E+00   3.157666E+00   3.024612E+00   2.914213E+00   2.824708E+00   2.781070E+00   2.771911E+00   2.795136E+00   2.835654E+00   2.895491E+00   2.947395E+00   2.992145E+00   3.008217E+00   2.996019E+00   2.955350E+00   2.894431E+00   2.837251E+00   2.787031E+00   2.764630E+00   2.784226E+00   2.852171E+00   2.985122E+00   3.145719E+00   3.331777E+00   3.492183E+00   3.600993E+00   3.640515E+00   3.616497E+00   3.548578E+00   3.453582E+00   3.323488E+00   3.168940E+00   2.995594E+00   2.832651E+00   2.694656E+00   2.573887E+00   2.487817E+00   2.433939E+00   2.393531E+00   2.380939E+00   2.366927E+00   2.370548E+00   2.385124E+00   2.415868E+00   2.466141E+00   2.529979E+00   2.616297E+00   2.714508E+00   2.835685E+00   2.982073E+00   3.155183E+00   3.350451E+00   3.571598E+00   3.813696E+00   4.059501E+00   4.281067E+00   4.464579E+00   4.609189E+00   4.704372E+00   4.741846E+00   4.729194E+00   4.662390E+00   4.551764E+00   4.400183E+00   4.236207E+00   4.082435E+00   3.944688E+00   3.856495E+00   3.807332E+00   3.816306E+00   3.887631E+00   4.005110E+00   4.149920E+00   4.329086E+00   4.553468E+00   4.811268E+00   5.114403E+00   5.422180E+00   5.737264E+00   5.978798E+00   6.084826E+00   6.043920E+00   5.855828E+00   5.551193E+00   5.188576E+00   4.810360E+00   4.452053E+00   4.092785E+00   3.748747E+00   3.425233E+00   3.138686E+00   2.889546E+00   2.700831E+00   2.550972E+00   2.445432E+00   2.391837E+00   2.380598E+00   2.413114E+00   2.497904E+00   2.634404E+00   2.831555E+00   3.050316E+00   3.292283E+00   3.532265E+00   3.766848E+00   3.958395E+00   4.113426E+00   4.209605E+00   4.281788E+00   4.319304E+00   4.339386E+00   4.337291E+00   4.334722E+00   4.302732E+00   4.280551E+00   4.231070E+00   4.189039E+00   4.154791E+00   4.129276E+00   4.138323E+00   4.184805E+00   4.258458E+00   4.340580E+00   4.393720E+00   4.415382E+00   4.385888E+00   4.323190E+00   4.236935E+00   4.155981E+00   4.091937E+00   4.036519E+00
   3.901781E+00   3.809876E+00   3.713128E+00   3.630320E+00   3.558638E+00   3.493091E+00   3.438183E+00   3.386707E+00   3.350142E+00   3.288799E+00   3.216419E+00   3.121599E+00   3.023464E+00   2.922679E+00   2.831318E+00   2.753154E+00   2.701738E+00   2.678769E+00   2.699817E+00   2.742586E+00   2.817668E+00   2.926547E+00   3.056264E+00   3.230277E+00   3.438376E+00   3.675484E+00   3.932622E+00   4.187680E+00   4.435353E+00   4.641897E+00   4.792256E+00   4.872334E+00   4.908640E+00   4.864437E+00   4.746430E+00   4.553739E+00   4.323524E+00   4.029808E+00   3.758647E+00   3.508264E+00   3.313633E+00   3.156220E+00   3.022308E+00   2.903413E+00   2.799400E+00   2.721164E+00   2.671008E+00   2.638942E+00   2.636608E+00   2.670300E+00   2.738728E+00   2.822988E+00   2.910129E+00   2.960671E+00   2.976275E+00   2.960452E+00   2.945669E+00   2.945060E+00   2.983143E+00   3.057798E+00   3.184605E+00   3.341540E+00   3.498822E+00   3.627175E+00   3.702981E+00   3.705135E+00   3.643091E+00   3.534599E+00   3.393703E+00   3.237228E+00   3.073587E+00   2.923557E+00   2.787811E+00   2.690699E+00   2.641172E+00   2.635721E+00   2.664803E+00   2.728922E+00   2.799674E+00   2.865942E+00   2.917981E+00   2.931241E+00   2.906170E+00   2.851797E+00   2.781957E+00   2.705246E+00   2.636994E+00   2.599594E+00   2.599530E+00   2.654163E+00   2.770072E+00   2.936041E+00   3.119492E+00   3.298907E+00   3.442320E+00   3.518305E+00   3.534191E+00   3.508515E+00   3.444550E+00   3.340535E+00   3.192467E+00   3.012789E+00   2.849191E+00   2.706479E+00   2.596035E+00   2.518672E+00   2.464243E+00   2.428278E+00   2.404621E+00   2.406855E+00   2.422223E+00   2.448593E+00   2.486743E+00   2.553361E+00   2.621930E+00   2.698342E+00   2.789951E+00   2.883427E+00   3.000817E+00   3.141461E+00   3.320325E+00   3.524559E+00   3.754156E+00   3.992300E+00   4.188568E+00   4.356208E+00   4.461940E+00   4.500217E+00   4.506040E+00   4.485362E+00   4.419309E+00   4.309984E+00   4.154829E+00   4.001846E+00   3.840576E+00   3.701922E+00   3.601124E+00   3.565802E+00   3.584937E+00   3.674569E+00   3.811522E+00   4.004084E+00   4.232913E+00   4.505548E+00   4.816901E+00   5.151816E+00   5.489574E+00   5.837108E+00   6.113195E+00   6.268638E+00   6.251064E+00   6.081673E+00   5.758923E+00   5.355239E+00   4.927797E+00   4.504665E+00   4.099054E+00   3.720454E+00   3.368761E+00   3.066532E+00   2.811334E+00   2.601327E+00   2.445777E+00   2.332650E+00   2.270991E+00   2.255229E+00   2.288609E+00   2.376597E+00   2.523731E+00   2.715785E+00   2.945251E+00   3.191228E+00   3.443626E+00   3.689313E+00   3.913645E+00   4.080166E+00   4.192919E+00   4.246715E+00   4.279401E+00   4.268290E+00   4.247681E+00   4.206367E+00   4.172299E+00   4.134811E+00   4.107605E+00   4.080850E+00   4.088080E+00   4.122331E+00   4.193178E+00   4.300637E+00   4.423354E+00   4.540880E+00   4.622752E+00   4.633642E+00   4.597713E+00   4.522393E+00   4.414399E+00   4.300083E+00   4.189058E+00   4.089282E+00
   3.927725E+00   3.860531E+00   3.788500E+00   3.723047E+00   3.643535E+00   3.574858E+00   3.506937E+00   3.459887E+00   3.412317E+00   3.347393E+00   3.262696E+00   3.163973E+00   3.052744E+00   2.956084E+00   2.864768E+00   2.791303E+00   2.733264E+00   2.716188E+00   2.734662E+00   2.797911E+00   2.881637E+00   2.997647E+00   3.127900E+00   3.292981E+00   3.480367E+00   3.681203E+00   3.901462E+00   4.138103E+00   4.358422E+00   4.559228E+00   4.716136E+00   4.837118E+00   4.928806E+00   4.954384E+00   4.886366E+00   4.748900E+00   4.528685E+00   4.226588E+00   3.907840E+00   3.603808E+00   3.350622E+00   3.144244E+00   2.970488E+00   2.836763E+00   2.728022E+00   2.642557E+00   2.593633E+00   2.572459E+00   2.599712E+00   2.667014E+00   2.776193E+00   2.913501E+00   3.051696E+00   3.166166E+00   3.228232E+00   3.264102E+00   3.281478E+00   3.301446E+00   3.351285E+00   3.445983E+00   3.576875E+00   3.732610E+00   3.894612E+00   4.002835E+00   4.042737E+00   3.995444E+00   3.872672E+00   3.710819E+00   3.517600E+00   3.312930E+00   3.124877E+00   2.945882E+00   2.802783E+00   2.693914E+00   2.638383E+00   2.633645E+00   2.659039E+00   2.716274E+00   2.789489E+00   2.847194E+00   2.889453E+00   2.890276E+00   2.852812E+00   2.790010E+00   2.706868E+00   2.614057E+00   2.526968E+00   2.465752E+00   2.452734E+00   2.498275E+00   2.602138E+00   2.761211E+00   2.956203E+00   3.156575E+00   3.335379E+00   3.460891E+00   3.530650E+00   3.550541E+00   3.522231E+00   3.436650E+00   3.299406E+00   3.143747E+00   2.984284E+00   2.847548E+00   2.743605E+00   2.675278E+00   2.635993E+00   2.606067E+00   2.594765E+00   2.592273E+00   2.609414E+00   2.639505E+00   2.691488E+00   2.750973E+00   2.813232E+00   2.870949E+00   2.921668E+00   2.981358E+00   3.060996E+00   3.169888E+00   3.313994E+00   3.483575E+00   3.680080E+00   3.872633E+00   4.037152E+00   4.143732E+00   4.186068E+00   4.176836E+00   4.163928E+00   4.130315E+00   4.092353E+00   4.018066E+00   3.917597E+00   3.791422E+00   3.648201E+00   3.509144E+00   3.404816E+00   3.358124E+00   3.388775E+00   3.479695E+00   3.632199E+00   3.854029E+00   4.107755E+00   4.400785E+00   4.727018E+00   5.081501E+00   5.440054E+00   5.796576E+00   6.091926E+00   6.274510E+00   6.310011E+00   6.157745E+00   5.831943E+00   5.429565E+00   4.998371E+00   4.558648E+00   4.133220E+00   3.731975E+00   3.385537E+00   3.080946E+00   2.821500E+00   2.606718E+00   2.437455E+00   2.311601E+00   2.234541E+00   2.206726E+00   2.236018E+00   2.315370E+00   2.456317E+00   2.644463E+00   2.873796E+00   3.128351E+00   3.389501E+00   3.644696E+00   3.861377E+00   4.030115E+00   4.142808E+00   4.209156E+00   4.220126E+00   4.215845E+00   4.167728E+00   4.130903E+00   4.083498E+00   4.053060E+00   4.026976E+00   4.033854E+00   4.065274E+00   4.129920E+00   4.237238E+00   4.388076E+00   4.552620E+00   4.687324E+00   4.764027E+00   4.776038E+00   4.729061E+00   4.654435E+00   4.558905E+00   4.432371E+00   4.291404E+00   4.145030E+00
   3.979184E+00   3.955988E+00   3.915956E+00   3.845987E+00   3.787061E+00   3.702068E+00   3.640177E+00   3.584994E+00   3.538286E+00   3.469536E+00   3.374292E+00   3.260381E+00   3.136710E+00   3.032273E+00   2.942680E+00   2.871333E+00   2.819360E+00   2.790609E+00   2.819900E+00   2.883385E+00   2.984347E+00   3.110374E+00   3.237040E+00   3.391571E+00   3.556929E+00   3.740183E+00   3.941494E+00   4.130767E+00   4.331025E+00   4.528894E+00   4.722069E+00   4.876060E+00   4.993708E+00   5.067801E+00   5.074249E+00   4.979938E+00   4.778575E+00   4.475129E+00   4.123477E+00   3.773198E+00   3.475830E+00   3.218935E+00   3.015912E+00   2.854831E+00   2.731316E+00   2.650484E+00   2.602044E+00   2.606286E+00   2.658825E+00   2.753659E+00   2.901561E+00   3.083323E+00   3.264467E+00   3.425190E+00   3.535553E+00   3.600648E+00   3.640778E+00   3.670812E+00   3.742149E+00   3.855314E+00   4.003531E+00   4.174058E+00   4.336217E+00   4.434844E+00   4.437867E+00   4.351393E+00   4.188705E+00   3.979725E+00   3.749292E+00   3.520012E+00   3.295285E+00   3.104112E+00   2.943425E+00   2.832311E+00   2.759527E+00   2.729994E+00   2.735016E+00   2.771571E+00   2.823617E+00   2.866549E+00   2.880148E+00   2.862558E+00   2.808344E+00   2.741745E+00   2.651229E+00   2.550813E+00   2.460120E+00   2.394068E+00   2.382336E+00   2.432569E+00   2.542896E+00   2.699253E+00   2.900738E+00   3.110501E+00   3.316330E+00   3.494190E+00   3.620704E+00   3.673952E+00   3.670398E+00   3.599324E+00   3.483649E+00   3.343704E+00   3.200023E+00   3.071775E+00   2.981828E+00   2.925919E+00   2.895719E+00   2.879407E+00   2.873986E+00   2.873287E+00   2.885545E+00   2.914587E+00   2.965602E+00   3.022842E+00   3.066703E+00   3.108850E+00   3.122635E+00   3.139509E+00   3.171076E+00   3.221619E+00   3.309055E+00   3.421516E+00   3.553961E+00   3.683712E+00   3.775114E+00   3.814838E+00   3.803137E+00   3.771965E+00   3.744543E+00   3.737178E+00   3.735891E+00   3.736377E+00   3.699374E+00   3.620289E+00   3.521253E+00   3.398163E+00   3.291667E+00   3.229480E+00   3.249509E+00   3.343309E+00   3.512545E+00   3.753463E+00   4.030168E+00   4.332442E+00   4.645365E+00   4.978146E+00   5.325202E+00   5.669747E+00   5.977594E+00   6.189411E+00   6.239094E+00   6.109669E+00   5.834054E+00   5.472083E+00   5.046827E+00   4.617022E+00   4.185046E+00   3.797947E+00   3.451264E+00   3.153297E+00   2.899595E+00   2.673224E+00   2.492498E+00   2.357386E+00   2.272852E+00   2.236712E+00   2.258371E+00   2.327534E+00   2.455868E+00   2.632410E+00   2.854410E+00   3.111456E+00   3.386277E+00   3.643343E+00   3.848923E+00   3.999987E+00   4.092180E+00   4.131550E+00   4.142463E+00   4.115976E+00   4.074306E+00   4.032169E+00   3.995029E+00   3.959897E+00   3.949465E+00   3.954943E+00   4.000422E+00   4.075851E+00   4.202759E+00   4.372023E+00   4.536939E+00   4.675414E+00   4.758944E+00   4.768040E+00   4.727901E+00   4.655737E+00   4.566707E+00   4.446433E+00   4.311217E+00   4.158983E+00
   4.043859E+00   4.084085E+00   4.071316E+00   4.037142E+00   3.960747E+00   3.884903E+00   3.813407E+00   3.759242E+00   3.692733E+00   3.603783E+00   3.479721E+00   3.349808E+00   3.220976E+00   3.113750E+00   3.027300E+00   2.968133E+00   2.913285E+00   2.900611E+00   2.924056E+00   2.988815E+00   3.087968E+00   3.214280E+00   3.341985E+00   3.478662E+00   3.627338E+00   3.797557E+00   3.965944E+00   4.147948E+00   4.342064E+00   4.552005E+00   4.756494E+00   4.954791E+00   5.105197E+00   5.217497E+00   5.243686E+00   5.179907E+00   5.008833E+00   4.736045E+00   4.380304E+00   4.003547E+00   3.651491E+00   3.363509E+00   3.126499E+00   2.944909E+00   2.819494E+00   2.735754E+00   2.707026E+00   2.716820E+00   2.787328E+00   2.909094E+00   3.080539E+00   3.272481E+00   3.458328E+00   3.628618E+00   3.748288E+00   3.826561E+00   3.874830E+00   3.941517E+00   4.036612E+00   4.176164E+00   4.367204E+00   4.566543E+00   4.749515E+00   4.856476E+00   4.847937E+00   4.724273E+00   4.530390E+00   4.301403E+00   4.056867E+00   3.805454E+00   3.577592E+00   3.378280E+00   3.201338E+00   3.065159E+00   2.967498E+00   2.905221E+00   2.885548E+00   2.880117E+00   2.895757E+00   2.904460E+00   2.899621E+00   2.858862E+00   2.798412E+00   2.724058E+00   2.642927E+00   2.555212E+00   2.475859E+00   2.430800E+00   2.431566E+00   2.497138E+00   2.613774E+00   2.782174E+00   2.976049E+00   3.193470E+00   3.412259E+00   3.608061E+00   3.763324E+00   3.837865E+00   3.842739E+00   3.784529E+00   3.672492E+00   3.546676E+00   3.415776E+00   3.298598E+00   3.212385E+00   3.164582E+00   3.148876E+00   3.143741E+00   3.148095E+00   3.160079E+00   3.179137E+00   3.207866E+00   3.260596E+00   3.311417E+00   3.340968E+00   3.346409E+00   3.325122E+00   3.288448E+00   3.258894E+00   3.245560E+00   3.260327E+00   3.298530E+00   3.354913E+00   3.410595E+00   3.442788E+00   3.444691E+00   3.415579E+00   3.382593E+00   3.375355E+00   3.390485E+00   3.445087E+00   3.502943E+00   3.535693E+00   3.519155E+00   3.461977E+00   3.369553E+00   3.284329E+00   3.227734E+00   3.242804E+00   3.322261E+00   3.490731E+00   3.741364E+00   4.033999E+00   4.338398E+00   4.636051E+00   4.931344E+00   5.239414E+00   5.556553E+00   5.846245E+00   6.059045E+00   6.142615E+00   6.062297E+00   5.839487E+00   5.501156E+00   5.102024E+00   4.674908E+00   4.269265E+00   3.885727E+00   3.559887E+00   3.277905E+00   3.028289E+00   2.793713E+00   2.601050E+00   2.452586E+00   2.352327E+00   2.309364E+00   2.314382E+00   2.382834E+00   2.500041E+00   2.669344E+00   2.872296E+00   3.123081E+00   3.385431E+00   3.627697E+00   3.815108E+00   3.944038E+00   4.011875E+00   4.035581E+00   4.031655E+00   3.990005E+00   3.960619E+00   3.940794E+00   3.914690E+00   3.893059E+00   3.875514E+00   3.878168E+00   3.913759E+00   3.978764E+00   4.088241E+00   4.229114E+00   4.381669E+00   4.500809E+00   4.581415E+00   4.594026E+00   4.575700E+00   4.527449E+00   4.442656E+00   4.360716E+00   4.255044E+00   4.139216E+00
   4.118099E+00   4.210653E+00   4.262514E+00   4.249804E+00   4.208247E+00   4.124854E+00   4.064847E+00   3.997010E+00   3.908829E+00   3.779159E+00   3.618276E+00   3.458481E+00   3.314848E+00   3.196202E+00   3.115210E+00   3.067697E+00   3.035702E+00   3.023987E+00   3.037141E+00   3.090744E+00   3.170281E+00   3.276052E+00   3.403456E+00   3.531925E+00   3.672402E+00   3.816589E+00   3.980222E+00   4.159789E+00   4.383667E+00   4.596569E+00   4.813960E+00   5.005998E+00   5.181517E+00   5.289244E+00   5.335729E+00   5.284928E+00   5.155830E+00   4.924685E+00   4.611239E+00   4.239052E+00   3.877296E+00   3.554096E+00   3.295000E+00   3.101086E+00   2.959788E+00   2.877257E+00   2.846994E+00   2.876786E+00   2.957857E+00   3.078472E+00   3.238441E+00   3.413973E+00   3.595721E+00   3.736705E+00   3.843068E+00   3.910332E+00   3.973774E+00   4.058500E+00   4.188004E+00   4.376847E+00   4.612289E+00   4.859583E+00   5.051848E+00   5.165165E+00   5.162356E+00   5.044471E+00   4.843088E+00   4.610401E+00   4.365969E+00   4.127519E+00   3.916557E+00   3.719795E+00   3.534490E+00   3.381519E+00   3.237808E+00   3.137533E+00   3.067498E+00   3.019534E+00   2.986039E+00   2.955247E+00   2.920535E+00   2.867060E+00   2.804531E+00   2.742196E+00   2.669518E+00   2.616890E+00   2.576262E+00   2.566145E+00   2.601529E+00   2.682095E+00   2.829155E+00   3.010951E+00   3.223284E+00   3.450223E+00   3.653695E+00   3.813050E+00   3.943116E+00   4.020422E+00   4.009004E+00   3.952228E+00   3.841518E+00   3.726254E+00   3.610012E+00   3.506293E+00   3.425751E+00   3.373342E+00   3.342857E+00   3.344045E+00   3.354592E+00   3.380240E+00   3.413827E+00   3.450003E+00   3.492932E+00   3.513792E+00   3.511934E+00   3.486867E+00   3.433616E+00   3.359190E+00   3.271075E+00   3.190655E+00   3.133406E+00   3.100969E+00   3.091949E+00   3.086869E+00   3.077947E+00   3.064911E+00   3.046654E+00   3.046912E+00   3.070150E+00   3.129284E+00   3.219975E+00   3.329875E+00   3.413316E+00   3.460712E+00   3.453934E+00   3.415664E+00   3.354417E+00   3.319465E+00   3.333579E+00   3.424752E+00   3.583102E+00   3.817744E+00   4.090608E+00   4.375715E+00   4.642170E+00   4.914448E+00   5.188403E+00   5.481016E+00   5.738369E+00   5.935939E+00   6.019952E+00   5.968302E+00   5.782356E+00   5.505796E+00   5.157575E+00   4.773244E+00   4.398103E+00   4.036622E+00   3.707420E+00   3.424946E+00   3.169069E+00   2.936167E+00   2.729565E+00   2.576810E+00   2.472921E+00   2.423177E+00   2.430985E+00   2.485681E+00   2.602145E+00   2.752335E+00   2.949191E+00   3.173248E+00   3.409418E+00   3.627184E+00   3.804327E+00   3.901361E+00   3.955533E+00   3.968800E+00   3.953453E+00   3.917835E+00   3.893134E+00   3.872837E+00   3.862350E+00   3.836307E+00   3.818116E+00   3.802576E+00   3.815966E+00   3.857482E+00   3.934078E+00   4.037885E+00   4.145312E+00   4.244000E+00   4.295460E+00   4.320774E+00   4.320824E+00   4.298252E+00   4.258354E+00   4.217231E+00   4.165432E+00   4.084827E+00