# LPF package for  MODFLOW-2005, generated by Flopy.
         0    -1E+30         0  
         0
         0
   1.000000E+00
         0
         0
INTERNAL               1 (200E15.6) -1 #hk layer 1                    
   3.943324E+00   3.912407E+00   3.879339E+00   3.834886E+00   3.804565E+00   3.783389E+00   3.771882E+00   3.759826E+00   3.759018E+00   3.732581E+00   3.702487E+00   3.658200E+00   3.609872E+00   3.551684E+00   3.492229E+00   3.452592E+00   3.436023E+00   3.442507E+00   3.457425E+00   3.487693E+00   3.532045E+00   3.591431E+00   3.662849E+00   3.763568E+00   3.856877E+00   3.948925E+00   4.034532E+00   4.115503E+00   4.186673E+00   4.240368E+00   4.271716E+00   4.282011E+00   4.261576E+00   4.202018E+00   4.132280E+00   4.044164E+00   3.963107E+00   3.878725E+00   3.812166E+00   3.754573E+00   3.708038E+00   3.678443E+00   3.650733E+00   3.613116E+00   3.582183E+00   3.565452E+00   3.567790E+00   3.567933E+00   3.570590E+00   3.563469E+00   3.544163E+00   3.519532E+00   3.486517E+00   3.448433E+00   3.416278E+00   3.374216E+00   3.344486E+00   3.329827E+00   3.344681E+00   3.389436E+00   3.444287E+00   3.516748E+00   3.597954E+00   3.676956E+00   3.733884E+00   3.782681E+00   3.810784E+00   3.828326E+00   3.826571E+00   3.801680E+00   3.759024E+00   3.709197E+00   3.663018E+00   3.633274E+00   3.625679E+00   3.614013E+00   3.618790E+00   3.611252E+00   3.600207E+00   3.586381E+00   3.583866E+00   3.569224E+00   3.555700E+00   3.544095E+00   3.529375E+00   3.521648E+00   3.523995E+00   3.541571E+00   3.562696E+00   3.620259E+00   3.693346E+00   3.776099E+00   3.853914E+00   3.911701E+00   3.932059E+00   3.926644E+00   3.900749E+00   3.851446E+00   3.797105E+00   3.725394E+00   3.652845E+00   3.572404E+00   3.491732E+00   3.432788E+00   3.383806E+00   3.344281E+00   3.320559E+00   3.299775E+00   3.298543E+00   3.286936E+00   3.274509E+00   3.254544E+00   3.244349E+00   3.250036E+00   3.258535E+00   3.289045E+00   3.349258E+00   3.428617E+00   3.525136E+00   3.630648E+00   3.722084E+00   3.822885E+00   3.913150E+00   3.997565E+00   4.077689E+00   4.143408E+00   4.220909E+00   4.280138E+00   4.314479E+00   4.333442E+00   4.321526E+00   4.297448E+00   4.270765E+00   4.230306E+00   4.175544E+00   4.131968E+00   4.074149E+00   4.036228E+00   4.015487E+00   4.018164E+00   4.043761E+00   4.079197E+00   4.134380E+00   4.191938E+00   4.260756E+00   4.332839E+00   4.418501E+00   4.516977E+00   4.585001E+00   4.612524E+00   4.590441E+00   4.537891E+00   4.446019E+00   4.353525E+00   4.245090E+00   4.132905E+00   4.026312E+00   3.919127E+00   3.819213E+00   3.710113E+00   3.621775E+00   3.520472E+00   3.441679E+00   3.389634E+00   3.353104E+00   3.338329E+00   3.344728E+00   3.373755E+00   3.423088E+00   3.510767E+00   3.618251E+00   3.731547E+00   3.849652E+00   3.951468E+00   4.026646E+00   4.078105E+00   4.111949E+00   4.141770E+00   4.165935E+00   4.177492E+00   4.194109E+00   4.207168E+00   4.218283E+00   4.215235E+00   4.202668E+00   4.165305E+00   4.116181E+00   4.052778E+00   3.995103E+00   3.958577E+00   3.942907E+00   3.947700E+00   3.958369E+00   3.976153E+00   3.983024E+00   3.989696E+00   3.990989E+00   3.972934E+00   3.965604E+00   3.962121E+00
   3.907630E+00   3.858299E+00   3.795345E+00   3.724399E+00   3.653813E+00   3.614138E+00   3.582592E+00   3.559313E+00   3.546689E+00   3.531372E+00   3.479806E+00   3.418933E+00   3.323329E+00   3.232637E+00   3.141879E+00   3.076620E+00   3.042052E+00   3.046702E+00   3.069975E+00   3.111923E+00   3.179310E+00   3.274938E+00   3.398558E+00   3.547403E+00   3.714393E+00   3.893744E+00   4.078230E+00   4.253309E+00   4.406559E+00   4.517397E+00   4.576971E+00   4.605033E+00   4.555722E+00   4.455795E+00   4.309037E+00   4.152935E+00   3.995677E+00   3.840185E+00   3.691631E+00   3.586009E+00   3.499089E+00   3.443347E+00   3.390951E+00   3.340884E+00   3.287503E+00   3.259588E+00   3.252820E+00   3.249219E+00   3.249873E+00   3.240224E+00   3.217179E+00   3.177764E+00   3.137322E+00   3.083221E+00   3.016266E+00   2.954871E+00   2.910784E+00   2.891231E+00   2.910532E+00   2.973312E+00   3.069454E+00   3.202500E+00   3.344378E+00   3.467952E+00   3.568244E+00   3.645334E+00   3.680552E+00   3.685913E+00   3.661625E+00   3.605702E+00   3.525400E+00   3.442767E+00   3.366757E+00   3.311485E+00   3.276765E+00   3.257631E+00   3.252332E+00   3.256783E+00   3.263741E+00   3.271828E+00   3.267828E+00   3.257781E+00   3.236689E+00   3.209044E+00   3.176138E+00   3.149718E+00   3.146744E+00   3.163664E+00   3.206292E+00   3.286145E+00   3.420159E+00   3.552484E+00   3.698454E+00   3.805268E+00   3.860329E+00   3.863198E+00   3.807615E+00   3.729486E+00   3.629358E+00   3.512717E+00   3.385396E+00   3.249444E+00   3.114988E+00   3.008981E+00   2.925924E+00   2.860620E+00   2.819579E+00   2.797115E+00   2.780232E+00   2.764927E+00   2.745677E+00   2.733110E+00   2.737217E+00   2.746221E+00   2.778014E+00   2.835643E+00   2.919245E+00   3.030257E+00   3.173500E+00   3.329628E+00   3.491390E+00   3.668525E+00   3.839296E+00   4.006041E+00   4.155261E+00   4.301875E+00   4.434437E+00   4.534227E+00   4.578360E+00   4.592155E+00   4.575433E+00   4.532223E+00   4.458846E+00   4.355464E+00   4.249218E+00   4.152818E+00   4.082791E+00   4.031915E+00   4.021743E+00   4.040096E+00   4.095113E+00   4.184674E+00   4.263620E+00   4.378772E+00   4.503057E+00   4.664910E+00   4.847017E+00   5.039050E+00   5.191041E+00   5.241494E+00   5.205493E+00   5.076738E+00   4.899086E+00   4.692163E+00   4.465210E+00   4.239041E+00   4.019622E+00   3.816243E+00   3.615364E+00   3.435682E+00   3.260981E+00   3.118114E+00   2.992297E+00   2.914474E+00   2.867557E+00   2.845765E+00   2.857492E+00   2.914087E+00   3.016301E+00   3.162344E+00   3.334994E+00   3.525979E+00   3.720489E+00   3.887970E+00   4.026727E+00   4.124182E+00   4.194118E+00   4.248503E+00   4.285890E+00   4.314494E+00   4.339526E+00   4.369772E+00   4.375672E+00   4.367538E+00   4.326213E+00   4.271756E+00   4.190558E+00   4.096469E+00   4.014235E+00   3.954062E+00   3.958854E+00   3.978781E+00   4.010382E+00   4.029647E+00   4.031291E+00   4.030673E+00   4.014346E+00   3.990491E+00   3.966424E+00   3.963980E+00
   3.885895E+00   3.797479E+00   3.708253E+00   3.619792E+00   3.550801E+00   3.479143E+00   3.434447E+00   3.402161E+00   3.382007E+00   3.346429E+00   3.298523E+00   3.215957E+00   3.126779E+00   3.019662E+00   2.921547E+00   2.843579E+00   2.801318E+00   2.797737E+00   2.823346E+00   2.876471E+00   2.948454E+00   3.061345E+00   3.210432E+00   3.397128E+00   3.602024E+00   3.833927E+00   4.092779E+00   4.341463E+00   4.565644E+00   4.725659E+00   4.829925E+00   4.851423E+00   4.799725E+00   4.675197E+00   4.509543E+00   4.289285E+00   4.069040E+00   3.842083E+00   3.654053E+00   3.499070E+00   3.383555E+00   3.289639E+00   3.220786E+00   3.153452E+00   3.083581E+00   3.019195E+00   2.995931E+00   2.973335E+00   2.975463E+00   2.979679E+00   2.979419E+00   2.961550E+00   2.944020E+00   2.897069E+00   2.841397E+00   2.785715E+00   2.735721E+00   2.714026E+00   2.735875E+00   2.809638E+00   2.928595E+00   3.077664E+00   3.238818E+00   3.390314E+00   3.505417E+00   3.570958E+00   3.591808E+00   3.570727E+00   3.509939E+00   3.422651E+00   3.305156E+00   3.194673E+00   3.093282E+00   3.019174E+00   2.970188E+00   2.942891E+00   2.943572E+00   2.960764E+00   2.994437E+00   3.023587E+00   3.037699E+00   3.033481E+00   3.016808E+00   2.975307E+00   2.939905E+00   2.905034E+00   2.884324E+00   2.885851E+00   2.922690E+00   3.016018E+00   3.157614E+00   3.335748E+00   3.508666E+00   3.661833E+00   3.736408E+00   3.743123E+00   3.694688E+00   3.606102E+00   3.498211E+00   3.354934E+00   3.195565E+00   3.030790E+00   2.873589E+00   2.731024E+00   2.624032E+00   2.540998E+00   2.483337E+00   2.450897E+00   2.434136E+00   2.421063E+00   2.411831E+00   2.411346E+00   2.431014E+00   2.462807E+00   2.505496E+00   2.581854E+00   2.678332E+00   2.800535E+00   2.962830E+00   3.142050E+00   3.332736E+00   3.553786E+00   3.777284E+00   3.995639E+00   4.196689E+00   4.370524E+00   4.534800E+00   4.643978E+00   4.709888E+00   4.712445E+00   4.671115E+00   4.586089E+00   4.462841E+00   4.325647E+00   4.185662E+00   4.069983E+00   3.974668E+00   3.933248E+00   3.932298E+00   3.982053E+00   4.073054E+00   4.177720E+00   4.316406E+00   4.478776E+00   4.683272E+00   4.918026E+00   5.202684E+00   5.467111E+00   5.666398E+00   5.746162E+00   5.703830E+00   5.532984E+00   5.271031E+00   4.967313E+00   4.642705E+00   4.324445E+00   4.015207E+00   3.719588E+00   3.439483E+00   3.188315E+00   2.972753E+00   2.785009E+00   2.656609E+00   2.569619E+00   2.521833E+00   2.512137E+00   2.546195E+00   2.626735E+00   2.756110E+00   2.930950E+00   3.147227E+00   3.371370E+00   3.602180E+00   3.811712E+00   3.996244E+00   4.127357E+00   4.224190E+00   4.286108E+00   4.331643E+00   4.361797E+00   4.376471E+00   4.375810E+00   4.376734E+00   4.350081E+00   4.305349E+00   4.236179E+00   4.162066E+00   4.100457E+00   4.044245E+00   4.025365E+00   4.044079E+00   4.096214E+00   4.153790E+00   4.174176E+00   4.168258E+00   4.132494E+00   4.092872E+00   4.053894E+00   4.018795E+00   3.991528E+00
   3.870182E+00   3.773114E+00   3.664503E+00   3.570149E+00   3.494857E+00   3.433630E+00   3.377080E+00   3.337896E+00   3.301466E+00   3.258401E+00   3.190275E+00   3.113482E+00   3.009373E+00   2.905086E+00   2.805110E+00   2.732064E+00   2.683983E+00   2.672454E+00   2.695668E+00   2.750439E+00   2.820855E+00   2.929336E+00   3.080500E+00   3.280125E+00   3.510437E+00   3.770239E+00   4.052145E+00   4.346800E+00   4.605260E+00   4.805240E+00   4.932825E+00   4.988378E+00   4.935622E+00   4.841115E+00   4.656139E+00   4.422939E+00   4.162755E+00   3.897310E+00   3.656197E+00   3.471575E+00   3.321730E+00   3.197774E+00   3.087885E+00   2.986562E+00   2.898365E+00   2.826297E+00   2.781291E+00   2.747866E+00   2.747445E+00   2.767396E+00   2.800771E+00   2.834102E+00   2.862158E+00   2.873219E+00   2.849940E+00   2.812041E+00   2.774739E+00   2.763689E+00   2.790264E+00   2.867008E+00   2.990791E+00   3.148754E+00   3.310160E+00   3.453422E+00   3.550554E+00   3.587521E+00   3.564446E+00   3.492754E+00   3.393320E+00   3.267905E+00   3.131515E+00   2.989230E+00   2.871484E+00   2.774830E+00   2.725562E+00   2.710385E+00   2.726985E+00   2.759809E+00   2.811619E+00   2.855733E+00   2.893700E+00   2.904786E+00   2.889640E+00   2.849771E+00   2.792382E+00   2.741573E+00   2.698785E+00   2.685115E+00   2.714250E+00   2.792146E+00   2.936501E+00   3.108466E+00   3.305968E+00   3.475547E+00   3.589752E+00   3.627476E+00   3.596341E+00   3.518563E+00   3.412040E+00   3.269600E+00   3.102968E+00   2.919140E+00   2.747250E+00   2.602719E+00   2.477099E+00   2.388397E+00   2.333470E+00   2.293128E+00   2.281291E+00   2.268021E+00   2.272359E+00   2.288117E+00   2.319714E+00   2.370697E+00   2.434886E+00   2.521300E+00   2.618528E+00   2.738066E+00   2.881829E+00   3.052272E+00   3.244639E+00   3.463052E+00   3.703038E+00   3.947251E+00   4.168545E+00   4.352603E+00   4.499905E+00   4.599121E+00   4.640880E+00   4.631703E+00   4.567962E+00   4.459768E+00   4.310359E+00   4.148287E+00   3.996422E+00   3.860273E+00   3.775079E+00   3.728837E+00   3.741044E+00   3.816801E+00   3.940023E+00   4.091563E+00   4.278263E+00   4.512433E+00   4.781879E+00   5.100473E+00   5.426485E+00   5.762269E+00   6.022620E+00   6.139240E+00   6.099244E+00   5.900985E+00   5.575710E+00   5.187440E+00   4.783042E+00   4.401836E+00   4.023056E+00   3.664029E+00   3.331047E+00   3.040212E+00   2.790343E+00   2.604561E+00   2.458909E+00   2.357549E+00   2.308080E+00   2.300731E+00   2.337234E+00   2.426874E+00   2.569643E+00   2.775286E+00   3.002969E+00   3.254456E+00   3.503159E+00   3.745266E+00   3.941686E+00   4.099124E+00   4.194184E+00   4.262241E+00   4.291968E+00   4.302337E+00   4.289850E+00   4.278036E+00   4.238514E+00   4.211917E+00   4.159537E+00   4.116612E+00   4.084093E+00   4.061778E+00   4.076164E+00   4.129253E+00   4.211135E+00   4.301591E+00   4.361730E+00   4.389562E+00   4.363421E+00   4.302261E+00   4.216294E+00   4.135894E+00   4.073188E+00   4.019085E+00
   3.877199E+00   3.777082E+00   3.673758E+00   3.586809E+00   3.512744E+00   3.445894E+00   3.390204E+00   3.338215E+00   3.301815E+00   3.239919E+00   3.165943E+00   3.069082E+00   2.968747E+00   2.865481E+00   2.772764E+00   2.694804E+00   2.646104E+00   2.627802E+00   2.655862E+00   2.707600E+00   2.793776E+00   2.915880E+00   3.060840E+00   3.252324E+00   3.478875E+00   3.734464E+00   4.008067E+00   4.275044E+00   4.529535E+00   4.737375E+00   4.884210E+00   4.956258E+00   4.984628E+00   4.929966E+00   4.800760E+00   4.595374E+00   4.354025E+00   4.047037E+00   3.764394E+00   3.503348E+00   3.299551E+00   3.133238E+00   2.991048E+00   2.865012E+00   2.755586E+00   2.674803E+00   2.624313E+00   2.594150E+00   2.596214E+00   2.637204E+00   2.716248E+00   2.814285E+00   2.917575E+00   2.983855E+00   3.012552E+00   3.006192E+00   2.998361E+00   3.002378E+00   3.044049E+00   3.121366E+00   3.251010E+00   3.408690E+00   3.563439E+00   3.684976E+00   3.749959E+00   3.737655E+00   3.659884E+00   3.535975E+00   3.381384E+00   3.213380E+00   3.040883E+00   2.884342E+00   2.742710E+00   2.640643E+00   2.586758E+00   2.576966E+00   2.600598E+00   2.658564E+00   2.721801E+00   2.779915E+00   2.824312E+00   2.830941E+00   2.802208E+00   2.747148E+00   2.680125E+00   2.608457E+00   2.546819E+00   2.516888E+00   2.524974E+00   2.588218E+00   2.713459E+00   2.889297E+00   3.082213E+00   3.269880E+00   3.418761E+00   3.494520E+00   3.505239E+00   3.471985E+00   3.398602E+00   3.283531E+00   3.124339E+00   2.933985E+00   2.761953E+00   2.612369E+00   2.496807E+00   2.415809E+00   2.359198E+00   2.322452E+00   2.299165E+00   2.301944E+00   2.318398E+00   2.346300E+00   2.386697E+00   2.455353E+00   2.525558E+00   2.602517E+00   2.693785E+00   2.785510E+00   2.900204E+00   3.037594E+00   3.213321E+00   3.415073E+00   3.642279E+00   3.879408E+00   4.075012E+00   4.243951E+00   4.352708E+00   4.394632E+00   4.404510E+00   4.387774E+00   4.324914E+00   4.217771E+00   4.063597E+00   3.912459E+00   3.752306E+00   3.615207E+00   3.516326E+00   3.483891E+00   3.505551E+00   3.598998E+00   3.740844E+00   3.940737E+00   4.178865E+00   4.463871E+00   4.791152E+00   5.145695E+00   5.505901E+00   5.880360E+00   6.180151E+00   6.352072E+00   6.338197E+00   6.159392E+00   5.812778E+00   5.378246E+00   4.919143E+00   4.467597E+00   4.038049E+00   3.640855E+00   3.276704E+00   2.967919E+00   2.710905E+00   2.502084E+00   2.349918E+00   2.240582E+00   2.183027E+00   2.171615E+00   2.209811E+00   2.303220E+00   2.457594E+00   2.657929E+00   2.897583E+00   3.153977E+00   3.416515E+00   3.671022E+00   3.902892E+00   4.073658E+00   4.186762E+00   4.235620E+00   4.260491E+00   4.239067E+00   4.207774E+00   4.155828E+00   4.114291E+00   4.072536E+00   4.043795E+00   4.017126E+00   4.026801E+00   4.065878E+00   4.142989E+00   4.258815E+00   4.390236E+00   4.516598E+00   4.606429E+00   4.621823E+00   4.588223E+00   4.512767E+00   4.403444E+00   4.287648E+00   4.175090E+00   4.074409E+00
   3.905957E+00   3.832878E+00   3.756267E+00   3.687340E+00   3.604472E+00   3.532680E+00   3.461304E+00   3.411454E+00   3.361676E+00   3.293994E+00   3.206771E+00   3.105482E+00   2.991858E+00   2.893480E+00   2.801234E+00   2.728837E+00   2.673706E+00   2.662110E+00   2.688470E+00   2.762680E+00   2.858927E+00   2.989727E+00   3.135984E+00   3.318890E+00   3.523471E+00   3.740616E+00   3.974809E+00   4.222632E+00   4.449958E+00   4.655104E+00   4.812036E+00   4.930703E+00   5.020449E+00   5.042568E+00   4.967256E+00   4.821356E+00   4.590064E+00   4.273528E+00   3.938864E+00   3.619197E+00   3.351699E+00   3.132781E+00   2.947391E+00   2.804074E+00   2.688308E+00   2.598704E+00   2.548389E+00   2.528266E+00   2.559792E+00   2.635374E+00   2.757061E+00   2.911646E+00   3.069973E+00   3.205001E+00   3.284011E+00   3.332697E+00   3.358297E+00   3.382621E+00   3.434765E+00   3.530474E+00   3.660133E+00   3.811852E+00   3.966825E+00   4.062059E+00   4.085746E+00   4.020317E+00   3.879728E+00   3.703054E+00   3.497620E+00   3.284028E+00   3.090044E+00   2.906618E+00   2.760379E+00   2.648753E+00   2.591034E+00   2.584027E+00   2.605931E+00   2.658276E+00   2.725150E+00   2.774702E+00   2.808786E+00   2.802248E+00   2.759449E+00   2.694695E+00   2.612258E+00   2.522684E+00   2.440193E+00   2.384949E+00   2.378401E+00   2.431010E+00   2.542067E+00   2.708940E+00   2.911711E+00   3.119590E+00   3.303816E+00   3.430864E+00   3.498075E+00   3.512769E+00   3.476951E+00   3.381534E+00   3.233545E+00   3.067726E+00   2.899292E+00   2.754793E+00   2.644676E+00   2.571442E+00   2.528773E+00   2.496680E+00   2.485091E+00   2.483470E+00   2.502212E+00   2.535174E+00   2.590549E+00   2.653634E+00   2.718933E+00   2.778417E+00   2.829186E+00   2.887846E+00   2.964796E+00   3.070298E+00   3.211508E+00   3.378559E+00   3.573390E+00   3.765018E+00   3.929797E+00   4.037692E+00   4.082615E+00   4.076921E+00   4.068129E+00   4.038565E+00   4.004140E+00   3.931931E+00   3.832888E+00   3.707844E+00   3.565664E+00   3.427085E+00   3.324011E+00   3.278767E+00   3.312153E+00   3.406135E+00   3.563965E+00   3.793514E+00   4.058152E+00   4.365544E+00   4.710952E+00   5.089018E+00   5.475242E+00   5.861946E+00   6.185150E+00   6.387135E+00   6.431205E+00   6.269649E+00   5.918587E+00   5.482090E+00   5.016112E+00   4.543607E+00   4.088941E+00   3.664051E+00   3.300870E+00   2.986259E+00   2.722251E+00   2.506664E+00   2.339250E+00   2.216603E+00   2.143339E+00   2.119780E+00   2.154090E+00   2.239765E+00   2.388537E+00   2.586247E+00   2.826674E+00   3.092787E+00   3.365547E+00   3.631715E+00   3.857155E+00   4.031738E+00   4.146557E+00   4.210288E+00   4.213623E+00   4.200527E+00   4.141157E+00   4.094561E+00   4.039509E+00   4.005579E+00   3.978695E+00   3.987217E+00   4.022095E+00   4.092515E+00   4.207258E+00   4.366920E+00   4.540948E+00   4.684432E+00   4.766984E+00   4.782148E+00   4.735024E+00   4.658644E+00   4.559834E+00   4.428811E+00   4.283306E+00   4.132936E+00
   3.962210E+00   3.936964E+00   3.894855E+00   3.821459E+00   3.758935E+00   3.667851E+00   3.599622E+00   3.538516E+00   3.486310E+00   3.412505E+00   3.312495E+00   3.194910E+00   3.067749E+00   2.961517E+00   2.871502E+00   2.801666E+00   2.753594E+00   2.730916E+00   2.769642E+00   2.844969E+00   2.960077E+00   3.101807E+00   3.244437E+00   3.415373E+00   3.596014E+00   3.793331E+00   4.007277E+00   4.205448E+00   4.413667E+00   4.618701E+00   4.818031E+00   4.975948E+00   5.097732E+00   5.174934E+00   5.182553E+00   5.085042E+00   4.874294E+00   4.554591E+00   4.182681E+00   3.811198E+00   3.494852E+00   3.220499E+00   3.003028E+00   2.829885E+00   2.697449E+00   2.610891E+00   2.559719E+00   2.564138E+00   2.621014E+00   2.724508E+00   2.887277E+00   3.089134E+00   3.294216E+00   3.479104E+00   3.610066E+00   3.689391E+00   3.738313E+00   3.770724E+00   3.842157E+00   3.953110E+00   4.095698E+00   4.257737E+00   4.407731E+00   4.488835E+00   4.470862E+00   4.364216E+00   4.184025E+00   3.961483E+00   3.721961E+00   3.487299E+00   3.259870E+00   3.067820E+00   2.906953E+00   2.796276E+00   2.723859E+00   2.694192E+00   2.697609E+00   2.730895E+00   2.778087E+00   2.814054E+00   2.819392E+00   2.793969E+00   2.732703E+00   2.661405E+00   2.569296E+00   2.469771E+00   2.381771E+00   2.319383E+00   2.312723E+00   2.368277E+00   2.484656E+00   2.647058E+00   2.855448E+00   3.071060E+00   3.282882E+00   3.464562E+00   3.591774E+00   3.641650E+00   3.632012E+00   3.552191E+00   3.426076E+00   3.275627E+00   3.121836E+00   2.984038E+00   2.885692E+00   2.823151E+00   2.788251E+00   2.769172E+00   2.762918E+00   2.763234E+00   2.778363E+00   2.811379E+00   2.867439E+00   2.930073E+00   2.978675E+00   3.023591E+00   3.037795E+00   3.053342E+00   3.082438E+00   3.129537E+00   3.214468E+00   3.324991E+00   3.455931E+00   3.584837E+00   3.676260E+00   3.717105E+00   3.707309E+00   3.679237E+00   3.655913E+00   3.652892E+00   3.655188E+00   3.658753E+00   3.623630E+00   3.545639E+00   3.447288E+00   3.324682E+00   3.218859E+00   3.157222E+00   3.179199E+00   3.276354E+00   3.451827E+00   3.702863E+00   3.993130E+00   4.312900E+00   4.646754E+00   5.004933E+00   5.381478E+00   5.757732E+00   6.095913E+00   6.331502E+00   6.390614E+00   6.253252E+00   5.954030E+00   5.559249E+00   5.096163E+00   4.629363E+00   4.162537E+00   3.746675E+00   3.377861E+00   3.065385E+00   2.803399E+00   2.573112E+00   2.392082E+00   2.259444E+00   2.178315E+00   2.146652E+00   2.173671E+00   2.249419E+00   2.386058E+00   2.572866E+00   2.806429E+00   3.076341E+00   3.364392E+00   3.634043E+00   3.849788E+00   4.007950E+00   4.103106E+00   4.141192E+00   4.147409E+00   4.112939E+00   4.062091E+00   4.011656E+00   3.969116E+00   3.930819E+00   3.920898E+00   3.928374E+00   3.978447E+00   4.059812E+00   4.194412E+00   4.372566E+00   4.546639E+00   4.692659E+00   4.780738E+00   4.790035E+00   4.748219E+00   4.671575E+00   4.576777E+00   4.449621E+00   4.307662E+00   4.149371E+00
   4.032482E+00   4.076288E+00   4.063988E+00   4.028324E+00   3.946308E+00   3.862424E+00   3.781034E+00   3.717367E+00   3.641508E+00   3.544021E+00   3.412328E+00   3.276498E+00   3.143450E+00   3.034183E+00   2.947385E+00   2.890233E+00   2.839637E+00   2.833881E+00   2.867048E+00   2.944439E+00   3.058130E+00   3.200307E+00   3.343289E+00   3.494030E+00   3.655570E+00   3.838248E+00   4.016779E+00   4.207881E+00   4.411111E+00   4.631742E+00   4.846593E+00   5.056098E+00   5.216910E+00   5.340011E+00   5.372650E+00   5.310540E+00   5.132664E+00   4.845123E+00   4.467060E+00   4.065629E+00   3.689003E+00   3.379982E+00   3.124920E+00   2.929266E+00   2.792792E+00   2.701374E+00   2.668957E+00   2.678206E+00   2.752811E+00   2.884071E+00   3.071257E+00   3.284254E+00   3.493295E+00   3.688205E+00   3.828022E+00   3.920706E+00   3.975998E+00   4.045051E+00   4.138198E+00   4.272814E+00   4.456711E+00   4.644796E+00   4.812943E+00   4.900250E+00   4.869372E+00   4.724007E+00   4.512968E+00   4.272848E+00   4.022665E+00   3.770074E+00   3.544020E+00   3.348196E+00   3.174814E+00   3.041911E+00   2.946769E+00   2.886124E+00   2.866963E+00   2.859828E+00   2.871931E+00   2.874571E+00   2.862452E+00   2.812903E+00   2.744195E+00   2.663358E+00   2.578622E+00   2.489569E+00   2.410158E+00   2.366604E+00   2.370429E+00   2.440263E+00   2.561565E+00   2.736026E+00   2.935735E+00   3.159595E+00   3.384903E+00   3.586115E+00   3.744231E+00   3.817021E+00   3.816898E+00   3.750519E+00   3.627681E+00   3.490225E+00   3.347265E+00   3.218425E+00   3.121920E+00   3.065743E+00   3.044393E+00   3.035964E+00   3.039631E+00   3.053366E+00   3.076306E+00   3.110505E+00   3.169830E+00   3.227860E+00   3.263393E+00   3.272126E+00   3.250994E+00   3.212765E+00   3.179672E+00   3.162819E+00   3.174708E+00   3.211069E+00   3.265979E+00   3.320350E+00   3.352271E+00   3.355078E+00   3.327755E+00   3.297418E+00   3.293845E+00   3.313155E+00   3.372026E+00   3.433417E+00   3.469282E+00   3.454277E+00   3.398384E+00   3.306497E+00   3.221977E+00   3.166112E+00   3.183144E+00   3.266132E+00   3.442170E+00   3.705493E+00   4.015458E+00   4.340802E+00   4.661524E+00   4.983411E+00   5.320852E+00   5.669210E+00   5.989151E+00   6.226173E+00   6.321527E+00   6.235243E+00   5.991581E+00   5.620112E+00   5.181776E+00   4.713134E+00   4.269186E+00   3.851894E+00   3.499854E+00   3.198997E+00   2.937193E+00   2.695277E+00   2.499941E+00   2.352140E+00   2.254784E+00   2.215922E+00   2.226211E+00   2.301314E+00   2.426744E+00   2.606513E+00   2.821230E+00   3.085165E+00   3.360800E+00   3.615878E+00   3.814346E+00   3.951834E+00   4.024239E+00   4.048250E+00   4.041986E+00   3.994038E+00   3.959154E+00   3.935420E+00   3.906899E+00   3.884821E+00   3.868257E+00   3.873355E+00   3.912423E+00   3.982197E+00   4.097420E+00   4.245473E+00   4.405122E+00   4.529101E+00   4.612141E+00   4.623463E+00   4.602285E+00   4.549109E+00   4.456572E+00   4.367397E+00   4.254101E+00   4.131428E+00
   4.113953E+00   4.215656E+00   4.273490E+00   4.260232E+00   4.213683E+00   4.119665E+00   4.047483E+00   3.965485E+00   3.863752E+00   3.720516E+00   3.548075E+00   3.379451E+00   3.230147E+00   3.108728E+00   3.027264E+00   2.982222E+00   2.954869E+00   2.950108E+00   2.972396E+00   3.038205E+00   3.131428E+00   3.251576E+00   3.393421E+00   3.535218E+00   3.687510E+00   3.841501E+00   4.013954E+00   4.201796E+00   4.437317E+00   4.662604E+00   4.893497E+00   5.099814E+00   5.290960E+00   5.412698E+00   5.470574E+00   5.425117E+00   5.295394E+00   5.053648E+00   4.720529E+00   4.321803E+00   3.933110E+00   3.584311E+00   3.304390E+00   3.093783E+00   2.939206E+00   2.847388E+00   2.812234E+00   2.841699E+00   2.926482E+00   3.055782E+00   3.230342E+00   3.424961E+00   3.629426E+00   3.791357E+00   3.915349E+00   3.994150E+00   4.063539E+00   4.148862E+00   4.275477E+00   4.459577E+00   4.688003E+00   4.924433E+00   5.099867E+00   5.193227E+00   5.168799E+00   5.030819E+00   4.813764E+00   4.572007E+00   4.325552E+00   4.089745E+00   3.885677E+00   3.697214E+00   3.519759E+00   3.373813E+00   3.234650E+00   3.137517E+00   3.068863E+00   3.019942E+00   2.983652E+00   2.947710E+00   2.905665E+00   2.843765E+00   2.772561E+00   2.702894E+00   2.624509E+00   2.568787E+00   2.526350E+00   2.516280E+00   2.553625E+00   2.637279E+00   2.789324E+00   2.977184E+00   3.196904E+00   3.431609E+00   3.641911E+00   3.806038E+00   3.938867E+00   4.015733E+00   3.999119E+00   3.934247E+00   3.812042E+00   3.684276E+00   3.554891E+00   3.438479E+00   3.346501E+00   3.284437E+00   3.246695E+00   3.244070E+00   3.254034E+00   3.282032E+00   3.320371E+00   3.362995E+00   3.413847E+00   3.441963E+00   3.446009E+00   3.423989E+00   3.371036E+00   3.294046E+00   3.201917E+00   3.116646E+00   3.055774E+00   3.020473E+00   3.009213E+00   3.002628E+00   2.993278E+00   2.981389E+00   2.965084E+00   2.968552E+00   2.995469E+00   3.058617E+00   3.153451E+00   3.267811E+00   3.355107E+00   3.405758E+00   3.401253E+00   3.364841E+00   3.304569E+00   3.270777E+00   3.287382E+00   3.384005E+00   3.552176E+00   3.801723E+00   4.094519E+00   4.402533E+00   4.693617E+00   4.992764E+00   5.295411E+00   5.617990E+00   5.903353E+00   6.123666E+00   6.218432E+00   6.162449E+00   5.957569E+00   5.650681E+00   5.263295E+00   4.836621E+00   4.421382E+00   4.023193E+00   3.663333E+00   3.357519E+00   3.085099E+00   2.841274E+00   2.628665E+00   2.474401E+00   2.372158E+00   2.326248E+00   2.339259E+00   2.400493E+00   2.525501E+00   2.685909E+00   2.894878E+00   3.131763E+00   3.380887E+00   3.611137E+00   3.800368E+00   3.906109E+00   3.965699E+00   3.981016E+00   3.964952E+00   3.926713E+00   3.899976E+00   3.878732E+00   3.869164E+00   3.844510E+00   3.828593E+00   3.813986E+00   3.828843E+00   3.872034E+00   3.952062E+00   4.059544E+00   4.170518E+00   4.271490E+00   4.322493E+00   4.345963E+00   4.342951E+00   4.315929E+00   4.270061E+00   4.223003E+00   4.165209E+00   4.077253E+00