# LPF package for  MODFLOW-2005, generated by Flopy.
         0    -1E+30         0  
         0
         0
   1.000000E+00
         0
         0
INTERNAL               1 (200E15.6) -1 #hk layer 1                    
   3.962836E+00   3.935352E+00   3.904736E+00   3.862749E+00   3.834026E+00   3.813622E+00   3.802287E+00   3.789557E+00   3.787951E+00   3.761688E+00   3.732244E+00   3.689197E+00   3.641937E+00   3.585496E+00   3.527870E+00   3.488940E+00   3.471411E+00   3.475717E+00   3.487973E+00   3.515079E+00   3.555600E+00   3.610334E+00   3.676368E+00   3.769883E+00   3.856575E+00   3.942761E+00   4.024131E+00   4.102701E+00   4.173443E+00   4.228931E+00   4.263507E+00   4.278164E+00   4.262454E+00   4.208704E+00   4.144056E+00   4.060957E+00   3.983564E+00   3.902402E+00   3.837238E+00   3.780335E+00   3.734297E+00   3.704964E+00   3.677607E+00   3.641416E+00   3.612093E+00   3.596152E+00   3.597775E+00   3.596320E+00   3.596918E+00   3.587532E+00   3.565738E+00   3.538333E+00   3.502472E+00   3.460789E+00   3.425053E+00   3.380308E+00   3.347995E+00   3.330564E+00   3.342536E+00   3.384730E+00   3.437849E+00   3.508626E+00   3.588981E+00   3.667551E+00   3.724930E+00   3.774210E+00   3.803798E+00   3.824030E+00   3.825970E+00   3.806015E+00   3.768570E+00   3.724166E+00   3.683775E+00   3.658706E+00   3.654594E+00   3.647025E+00   3.655290E+00   3.651601E+00   3.644420E+00   3.635017E+00   3.635639E+00   3.623642E+00   3.611320E+00   3.599383E+00   3.582991E+00   3.572141E+00   3.569917E+00   3.582235E+00   3.598194E+00   3.648987E+00   3.714859E+00   3.790870E+00   3.863248E+00   3.918289E+00   3.938011E+00   3.934222E+00   3.911712E+00   3.868068E+00   3.820088E+00   3.755130E+00   3.688700E+00   3.614264E+00   3.538724E+00   3.483433E+00   3.436708E+00   3.398519E+00   3.375350E+00   3.354255E+00   3.352309E+00   3.340786E+00   3.328513E+00   3.308816E+00   3.299225E+00   3.304903E+00   3.313745E+00   3.343900E+00   3.403311E+00   3.481824E+00   3.577350E+00   3.681841E+00   3.773096E+00   3.873359E+00   3.963003E+00   4.047324E+00   4.127035E+00   4.192530E+00   4.268117E+00   4.325058E+00   4.356648E+00   4.372901E+00   4.360054E+00   4.335389E+00   4.308170E+00   4.267383E+00   4.212762E+00   4.168839E+00   4.110822E+00   4.072082E+00   4.050179E+00   4.051310E+00   4.074009E+00   4.106581E+00   4.158580E+00   4.213118E+00   4.279338E+00   4.348949E+00   4.431258E+00   4.525082E+00   4.590649E+00   4.616909E+00   4.595854E+00   4.545384E+00   4.457947E+00   4.371034E+00   4.269366E+00   4.164126E+00   4.064150E+00   3.962228E+00   3.866612E+00   3.760808E+00   3.673600E+00   3.573083E+00   3.493813E+00   3.439977E+00   3.401821E+00   3.385030E+00   3.389060E+00   3.415121E+00   3.461300E+00   3.544796E+00   3.647645E+00   3.756742E+00   3.870506E+00   3.969528E+00   4.043423E+00   4.094707E+00   4.129331E+00   4.160763E+00   4.187288E+00   4.202353E+00   4.222183E+00   4.238284E+00   4.251683E+00   4.250388E+00   4.238909E+00   4.202213E+00   4.153129E+00   4.089981E+00   4.032115E+00   3.993684E+00   3.975617E+00   3.977449E+00   3.985361E+00   4.000383E+00   4.005208E+00   4.010251E+00   4.009929E+00   3.991168E+00   3.983165E+00   3.979273E+00
   3.931170E+00   3.887885E+00   3.830005E+00   3.762864E+00   3.694839E+00   3.655845E+00   3.623875E+00   3.600124E+00   3.585874E+00   3.569468E+00   3.518583E+00   3.459317E+00   3.366609E+00   3.277941E+00   3.189316E+00   3.124588E+00   3.088340E+00   3.089673E+00   3.109089E+00   3.146154E+00   3.207152E+00   3.295035E+00   3.409104E+00   3.546408E+00   3.701543E+00   3.869651E+00   4.044441E+00   4.213121E+00   4.364060E+00   4.476957E+00   4.542843E+00   4.578568E+00   4.539449E+00   4.449956E+00   4.313789E+00   4.166867E+00   4.016816E+00   3.866352E+00   3.721133E+00   3.617125E+00   3.531971E+00   3.477475E+00   3.426522E+00   3.378046E+00   3.326801E+00   3.299261E+00   3.291243E+00   3.285336E+00   3.282631E+00   3.269231E+00   3.241695E+00   3.197850E+00   3.151681E+00   3.091356E+00   3.018959E+00   2.952779E+00   2.904515E+00   2.881169E+00   2.896713E+00   2.955741E+00   3.048221E+00   3.177416E+00   3.316469E+00   3.439436E+00   3.540980E+00   3.620324E+00   3.659897E+00   3.670966E+00   3.654564E+00   3.607766E+00   3.536753E+00   3.462947E+00   3.394688E+00   3.346417E+00   3.318025E+00   3.305491E+00   3.306513E+00   3.317016E+00   3.330517E+00   3.344450E+00   3.345998E+00   3.339526E+00   3.320177E+00   3.291465E+00   3.255471E+00   3.224041E+00   3.214209E+00   3.223184E+00   3.256867E+00   3.326669E+00   3.449497E+00   3.571538E+00   3.708011E+00   3.808095E+00   3.860807E+00   3.865816E+00   3.817385E+00   3.748049E+00   3.658780E+00   3.553016E+00   3.436006E+00   3.309179E+00   3.182666E+00   3.081920E+00   3.002626E+00   2.939446E+00   2.898925E+00   2.875491E+00   2.857765E+00   2.842536E+00   2.823029E+00   2.810411E+00   2.814400E+00   2.823893E+00   2.855638E+00   2.913130E+00   2.996854E+00   3.108279E+00   3.251651E+00   3.408155E+00   3.570940E+00   3.748523E+00   3.919971E+00   4.086939E+00   4.236310E+00   4.381764E+00   4.511621E+00   4.608007E+00   4.648540E+00   4.658947E+00   4.638929E+00   4.593386E+00   4.518824E+00   4.415329E+00   4.309210E+00   4.212135E+00   4.139702E+00   4.086282E+00   4.073336E+00   4.088174E+00   4.138540E+00   4.222391E+00   4.297079E+00   4.406720E+00   4.525745E+00   4.680955E+00   4.854681E+00   5.038040E+00   5.182801E+00   5.230611E+00   5.195640E+00   5.072866E+00   4.905418E+00   4.710649E+00   4.497606E+00   4.284864E+00   4.077406E+00   3.883707E+00   3.689598E+00   3.513213E+00   3.339145E+00   3.194930E+00   3.067024E+00   2.986109E+00   2.935641E+00   2.910780E+00   2.919001E+00   2.971530E+00   3.068187E+00   3.207845E+00   3.373831E+00   3.558054E+00   3.746385E+00   3.909541E+00   4.045510E+00   4.142165E+00   4.213184E+00   4.270606E+00   4.312987E+00   4.347864E+00   4.379150E+00   4.414530E+00   4.424866E+00   4.420096E+00   4.381980E+00   4.328689E+00   4.247805E+00   4.153101E+00   4.068501E+00   4.005041E+00   4.004141E+00   4.019020E+00   4.045019E+00   4.059724E+00   4.058107E+00   4.054858E+00   4.036894E+00   4.011757E+00   3.986693E+00   3.982303E+00
   3.911541E+00   3.831689E+00   3.749369E+00   3.665638E+00   3.598769E+00   3.527886E+00   3.482473E+00   3.448602E+00   3.426806E+00   3.390284E+00   3.342723E+00   3.261984E+00   3.174990E+00   3.070886E+00   2.974910E+00   2.897545E+00   2.853531E+00   2.846205E+00   2.866438E+00   2.912718E+00   2.976714E+00   3.079418E+00   3.216025E+00   3.387822E+00   3.577270E+00   3.793605E+00   4.038206E+00   4.276793E+00   4.495605E+00   4.657593E+00   4.768387E+00   4.801457E+00   4.762793E+00   4.652615E+00   4.500473E+00   4.292848E+00   4.082207E+00   3.863051E+00   3.679860E+00   3.528469E+00   3.415828E+00   3.325101E+00   3.258899E+00   3.194255E+00   3.126646E+00   3.063367E+00   3.038707E+00   3.013624E+00   3.011633E+00   3.010573E+00   3.004012E+00   2.978828E+00   2.952733E+00   2.897433E+00   2.834359E+00   2.772312E+00   2.717536E+00   2.691600E+00   2.709490E+00   2.778934E+00   2.893473E+00   3.038395E+00   3.196771E+00   3.347661E+00   3.465150E+00   3.536624E+00   3.565552E+00   3.554842E+00   3.505409E+00   3.429638E+00   3.323644E+00   3.222481E+00   3.129534E+00   3.062753E+00   3.020770E+00   3.000479E+00   3.008377E+00   3.033177E+00   3.074323E+00   3.110866E+00   3.130863E+00   3.131303E+00   3.116518E+00   3.074076E+00   3.034262E+00   2.993263E+00   2.964929E+00   2.957709E+00   2.984510E+00   3.066725E+00   3.196297E+00   3.362106E+00   3.523784E+00   3.667782E+00   3.738689E+00   3.748324E+00   3.707600E+00   3.629556E+00   3.533560E+00   3.403225E+00   3.255637E+00   3.101683E+00   2.952935E+00   2.817150E+00   2.714301E+00   2.633728E+00   2.576626E+00   2.543587E+00   2.525810E+00   2.512203E+00   2.502278E+00   2.501058E+00   2.520373E+00   2.552281E+00   2.595143E+00   2.671749E+00   2.768920E+00   2.892294E+00   3.055845E+00   3.236792E+00   3.429696E+00   3.652730E+00   3.877939E+00   4.097738E+00   4.299355E+00   4.472218E+00   4.633082E+00   4.738426E+00   4.800312E+00   4.799245E+00   4.754539E+00   4.666286E+00   4.541130E+00   4.402619E+00   4.261961E+00   4.144484E+00   4.046516E+00   4.001584E+00   3.997196E+00   4.042376E+00   4.127563E+00   4.226510E+00   4.359024E+00   4.514712E+00   4.710612E+00   4.934490E+00   5.204803E+00   5.455225E+00   5.643316E+00   5.717342E+00   5.675337E+00   5.512826E+00   5.265900E+00   4.981537E+00   4.677661E+00   4.377922E+00   4.084737E+00   3.801085E+00   3.529029E+00   3.281229E+00   3.065474E+00   2.875279E+00   2.742996E+00   2.651897E+00   2.600067E+00   2.586509E+00   2.616554E+00   2.692515E+00   2.815804E+00   2.983543E+00   3.191284E+00   3.407904E+00   3.631481E+00   3.835603E+00   4.015816E+00   4.145629E+00   4.243271E+00   4.309093E+00   4.361152E+00   4.399745E+00   4.422760E+00   4.430268E+00   4.437206E+00   4.415473E+00   4.374040E+00   4.306415E+00   4.231726E+00   4.167450E+00   4.107722E+00   4.083375E+00   4.095740E+00   4.140700E+00   4.191486E+00   4.206456E+00   4.196400E+00   4.158195E+00   4.116610E+00   4.076046E+00   4.039259E+00   4.009618E+00
   3.896479E+00   3.808243E+00   3.706905E+00   3.617429E+00   3.544414E+00   3.483737E+00   3.426778E+00   3.386703E+00   3.348948E+00   3.305392E+00   3.238101E+00   3.162503E+00   3.060828E+00   2.959017E+00   2.861406E+00   2.788507E+00   2.738341E+00   2.722421E+00   2.739192E+00   2.785884E+00   2.847331E+00   2.944556E+00   3.081570E+00   3.264176E+00   3.476704E+00   3.718523E+00   3.983909E+00   4.265175E+00   4.516953E+00   4.716733E+00   4.850714E+00   4.916012E+00   4.877975E+00   4.797017E+00   4.627302E+00   4.407703E+00   4.159431E+00   3.904285E+00   3.671085E+00   3.491967E+00   3.347421E+00   3.228649E+00   3.124274E+00   3.027956E+00   2.943337E+00   2.872598E+00   2.826643E+00   2.790887E+00   2.786044E+00   2.799537E+00   2.824380E+00   2.847378E+00   2.863671E+00   2.862930E+00   2.829697E+00   2.784371E+00   2.741187E+00   2.725697E+00   2.748490E+00   2.821201E+00   2.940866E+00   3.095263E+00   3.255919E+00   3.401196E+00   3.504318E+00   3.550964E+00   3.540809E+00   3.482929E+00   3.396690E+00   3.283391E+00   3.157624E+00   3.024553E+00   2.914128E+00   2.824591E+00   2.780920E+00   2.771727E+00   2.794922E+00   2.835416E+00   2.895236E+00   2.947130E+00   2.991876E+00   3.007942E+00   2.995736E+00   2.955054E+00   2.894122E+00   2.836929E+00   2.786695E+00   2.764283E+00   2.783864E+00   2.851794E+00   2.984731E+00   3.145322E+00   3.331385E+00   3.491814E+00   3.600659E+00   3.640221E+00   3.616238E+00   3.548353E+00   3.453390E+00   3.323328E+00   3.168810E+00   2.995493E+00   2.832576E+00   2.694605E+00   2.573855E+00   2.487803E+00   2.433939E+00   2.393538E+00   2.380944E+00   2.366919E+00   2.370520E+00   2.385070E+00   2.415781E+00   2.466021E+00   2.529823E+00   2.616104E+00   2.714281E+00   2.835427E+00   2.981786E+00   3.154869E+00   3.350107E+00   3.571224E+00   3.813293E+00   4.059068E+00   4.280606E+00   4.464098E+00   4.608688E+00   4.703848E+00   4.741294E+00   4.728617E+00   4.661799E+00   4.551173E+00   4.399614E+00   4.235670E+00   4.081927E+00   3.944205E+00   3.856024E+00   3.806863E+00   3.815833E+00   3.887159E+00   4.004651E+00   4.149485E+00   4.328686E+00   4.553113E+00   4.810971E+00   5.114165E+00   5.422002E+00   5.737152E+00   5.978752E+00   6.084846E+00   6.044006E+00   5.855971E+00   5.551367E+00   5.188754E+00   4.810520E+00   4.452168E+00   4.092837E+00   3.748733E+00   3.425147E+00   3.138533E+00   2.889334E+00   2.700568E+00   2.550663E+00   2.445086E+00   2.391458E+00   2.380190E+00   2.412674E+00   2.497430E+00   2.633892E+00   2.831001E+00   3.049723E+00   3.291662E+00   3.531630E+00   3.766210E+00   3.957772E+00   4.112836E+00   4.209073E+00   4.281334E+00   4.318945E+00   4.339128E+00   4.337134E+00   4.334663E+00   4.302767E+00   4.280672E+00   4.231262E+00   4.189291E+00   4.155098E+00   4.129619E+00   4.138695E+00   4.185198E+00   4.258864E+00   4.340990E+00   4.394112E+00   4.415743E+00   4.386204E+00   4.323451E+00   4.237140E+00   4.156132E+00   4.092038E+00   4.036569E+00
   3.901849E+00   3.810008E+00   3.713315E+00   3.630562E+00   3.558935E+00   3.493446E+00   3.438597E+00   3.387182E+00   3.350681E+00   3.289383E+00   3.217028E+00   3.122204E+00   3.024049E+00   2.923233E+00   2.831843E+00   2.753655E+00   2.702223E+00   2.679247E+00   2.700301E+00   2.743073E+00   2.818157E+00   2.927034E+00   3.056733E+00   3.230720E+00   3.438780E+00   3.675843E+00   3.932933E+00   4.187939E+00   4.435563E+00   4.642064E+00   4.792397E+00   4.872462E+00   4.908784E+00   4.864614E+00   4.746644E+00   4.553983E+00   4.323786E+00   4.030069E+00   3.758889E+00   3.508480E+00   3.313821E+00   3.156373E+00   3.022417E+00   2.903469E+00   2.799391E+00   2.721079E+00   2.670843E+00   2.638699E+00   2.636294E+00   2.669925E+00   2.738306E+00   2.822533E+00   2.909651E+00   2.960176E+00   2.975763E+00   2.959922E+00   2.945114E+00   2.944484E+00   2.982553E+00   3.057210E+00   3.184036E+00   3.341010E+00   3.498347E+00   3.626767E+00   3.702650E+00   3.704880E+00   3.642905E+00   3.534468E+00   3.393608E+00   3.237149E+00   3.073513E+00   2.923475E+00   2.787710E+00   2.690571E+00   2.641011E+00   2.635526E+00   2.664576E+00   2.728672E+00   2.799407E+00   2.865664E+00   2.917696E+00   2.930944E+00   2.905859E+00   2.851469E+00   2.781612E+00   2.704884E+00   2.636614E+00   2.599199E+00   2.599121E+00   2.653737E+00   2.769634E+00   2.935592E+00   3.119045E+00   3.298478E+00   3.441921E+00   3.517939E+00   3.533859E+00   3.508215E+00   3.444284E+00   3.340305E+00   3.192275E+00   3.012630E+00   2.849065E+00   2.706380E+00   2.595958E+00   2.518611E+00   2.464191E+00   2.428226E+00   2.404562E+00   2.406784E+00   2.422133E+00   2.448479E+00   2.486599E+00   2.553184E+00   2.621721E+00   2.698101E+00   2.789682E+00   2.883129E+00   3.000492E+00   3.141110E+00   3.319945E+00   3.524150E+00   3.753713E+00   3.991824E+00   4.188064E+00   4.355687E+00   4.461399E+00   4.499650E+00   4.505448E+00   4.484753E+00   4.418694E+00   4.309379E+00   4.154248E+00   4.001300E+00   3.840067E+00   3.701446E+00   3.600672E+00   3.565363E+00   3.584501E+00   3.674138E+00   3.811109E+00   4.003700E+00   4.232571E+00   4.505264E+00   4.816684E+00   5.151669E+00   5.489500E+00   5.837109E+00   6.113262E+00   6.268767E+00   6.251251E+00   6.081903E+00   5.759162E+00   5.355453E+00   4.927961E+00   4.504766E+00   4.099082E+00   3.720406E+00   3.368642E+00   3.066346E+00   2.811092E+00   2.601037E+00   2.445442E+00   2.332277E+00   2.270585E+00   2.254794E+00   2.288142E+00   2.376095E+00   2.523189E+00   2.715196E+00   2.944618E+00   3.190565E+00   3.442944E+00   3.688623E+00   3.912967E+00   4.079523E+00   4.192332E+00   4.246200E+00   4.278976E+00   4.267969E+00   4.247468E+00   4.206261E+00   4.172293E+00   4.134890E+00   4.107757E+00   4.081065E+00   4.088356E+00   4.122655E+00   4.193549E+00   4.301051E+00   4.423804E+00   4.541353E+00   4.623231E+00   4.634104E+00   4.598140E+00   4.522766E+00   4.414702E+00   4.300309E+00   4.189207E+00   4.089356E+00
   3.927783E+00   3.860646E+00   3.788670E+00   3.723269E+00   3.643815E+00   3.575201E+00   3.507347E+00   3.460367E+00   3.412868E+00   3.347995E+00   3.263325E+00   3.164607E+00   3.053356E+00   2.956670E+00   2.865328E+00   2.791847E+00   2.733792E+00   2.716715E+00   2.735193E+00   2.798453E+00   2.882180E+00   2.998183E+00   3.128411E+00   3.293454E+00   3.480781E+00   3.681550E+00   3.901742E+00   4.138320E+00   4.358585E+00   4.559356E+00   4.716246E+00   4.837233E+00   4.928959E+00   4.954595E+00   4.886633E+00   4.749209E+00   4.529018E+00   4.226910E+00   3.908127E+00   3.604053E+00   3.350820E+00   3.144393E+00   2.970581E+00   2.836796E+00   2.727981E+00   2.642432E+00   2.593424E+00   2.572170E+00   2.599353E+00   2.666592E+00   2.775718E+00   2.912984E+00   3.051148E+00   3.165594E+00   3.227641E+00   3.263493E+00   3.280850E+00   3.300802E+00   3.350636E+00   3.445341E+00   3.576260E+00   3.732041E+00   3.894104E+00   4.002397E+00   4.042374E+00   3.995151E+00   3.872437E+00   3.710631E+00   3.517443E+00   3.312798E+00   3.124760E+00   2.945766E+00   2.802655E+00   2.693764E+00   2.638203E+00   2.633431E+00   2.658793E+00   2.716003E+00   2.789199E+00   2.846889E+00   2.889136E+00   2.889945E+00   2.852462E+00   2.789641E+00   2.706481E+00   2.613655E+00   2.526550E+00   2.465318E+00   2.452285E+00   2.497809E+00   2.601657E+00   2.760721E+00   2.955711E+00   3.156094E+00   3.334918E+00   3.460459E+00   3.530248E+00   3.550170E+00   3.521895E+00   3.436350E+00   3.299142E+00   3.143524E+00   2.984097E+00   2.847391E+00   2.743468E+00   2.675154E+00   2.635872E+00   2.605938E+00   2.594622E+00   2.592113E+00   2.609234E+00   2.639303E+00   2.691258E+00   2.750716E+00   2.812945E+00   2.870638E+00   2.921340E+00   2.981016E+00   3.060638E+00   3.169516E+00   3.313604E+00   3.483161E+00   3.679637E+00   3.872168E+00   4.036664E+00   4.143225E+00   4.185541E+00   4.176288E+00   4.163360E+00   4.129739E+00   4.091780E+00   4.017514E+00   3.917075E+00   3.790939E+00   3.647755E+00   3.508734E+00   3.404433E+00   3.357758E+00   3.388420E+00   3.479353E+00   3.631883E+00   3.853750E+00   4.107526E+00   4.400619E+00   4.726926E+00   5.081489E+00   5.440124E+00   5.796728E+00   6.092147E+00   6.274793E+00   6.310344E+00   6.158102E+00   5.832279E+00   5.429850E+00   4.998585E+00   4.558778E+00   4.133259E+00   3.731927E+00   3.385413E+00   3.080756E+00   2.821255E+00   2.606425E+00   2.437119E+00   2.311227E+00   2.234135E+00   2.206290E+00   2.235550E+00   2.314868E+00   2.455777E+00   2.643881E+00   2.873175E+00   3.127700E+00   3.388829E+00   3.644021E+00   3.860716E+00   4.029491E+00   4.142242E+00   4.208658E+00   4.219714E+00   4.215532E+00   4.167521E+00   4.130801E+00   4.083487E+00   4.053126E+00   4.027104E+00   4.034042E+00   4.065514E+00   4.130208E+00   4.237574E+00   4.388465E+00   4.553060E+00   4.687807E+00   4.764531E+00   4.776542E+00   4.729543E+00   4.654874E+00   4.559277E+00   4.432657E+00   4.291592E+00   4.145121E+00
   3.979237E+00   3.956094E+00   3.916115E+00   3.846196E+00   3.787330E+00   3.702406E+00   3.640589E+00   3.585487E+00   3.538854E+00   3.470164E+00   3.374957E+00   3.261057E+00   3.137372E+00   3.032916E+00   2.943306E+00   2.871945E+00   2.819960E+00   2.791203E+00   2.820498E+00   2.883989E+00   2.984955E+00   3.110973E+00   3.237602E+00   3.392076E+00   3.557357E+00   3.740525E+00   3.941753E+00   4.130945E+00   4.331146E+00   4.528986E+00   4.722156E+00   4.876172E+00   4.993869E+00   5.068035E+00   5.074556E+00   4.980299E+00   4.778955E+00   4.475488E+00   4.123785E+00   3.773453E+00   3.476028E+00   3.219076E+00   3.015989E+00   2.854837E+00   2.731242E+00   2.650324E+00   2.601798E+00   2.605958E+00   2.658421E+00   2.753187E+00   2.901028E+00   3.082739E+00   3.263845E+00   3.424538E+00   3.534883E+00   3.599964E+00   3.640083E+00   3.670117E+00   3.741460E+00   3.854643E+00   4.002894E+00   4.173472E+00   4.335686E+00   4.434369E+00   4.437445E+00   4.351019E+00   4.188380E+00   3.979443E+00   3.749051E+00   3.519805E+00   3.295105E+00   3.103947E+00   2.943258E+00   2.832129E+00   2.759322E+00   2.729755E+00   2.734743E+00   2.771269E+00   2.823292E+00   2.866203E+00   2.879790E+00   2.862186E+00   2.807956E+00   2.741339E+00   2.650806E+00   2.550374E+00   2.459669E+00   2.393606E+00   2.381861E+00   2.432078E+00   2.542392E+00   2.698740E+00   2.900224E+00   3.109994E+00   3.315840E+00   3.493722E+00   3.620260E+00   3.673532E+00   3.670007E+00   3.598961E+00   3.483320E+00   3.343414E+00   3.199772E+00   3.071554E+00   2.981624E+00   2.925722E+00   2.895519E+00   2.879189E+00   2.873742E+00   2.873016E+00   2.885251E+00   2.914267E+00   2.965259E+00   3.022476E+00   3.066319E+00   3.108453E+00   3.122237E+00   3.139114E+00   3.170687E+00   3.221235E+00   3.308670E+00   3.421121E+00   3.553550E+00   3.683287E+00   3.774676E+00   3.814383E+00   3.802668E+00   3.771482E+00   3.744052E+00   3.736687E+00   3.735413E+00   3.735926E+00   3.698959E+00   3.619914E+00   3.520916E+00   3.397864E+00   3.291394E+00   3.229225E+00   3.249271E+00   3.343092E+00   3.512359E+00   3.753322E+00   4.030085E+00   4.332430E+00   4.645432E+00   4.978300E+00   5.325449E+00   5.670080E+00   5.978015E+00   6.189907E+00   6.239642E+00   6.110227E+00   5.834575E+00   5.472533E+00   5.047179E+00   4.617261E+00   4.185168E+00   3.797965E+00   3.451191E+00   3.153152E+00   2.899387E+00   2.672960E+00   2.492189E+00   2.357040E+00   2.272474E+00   2.236306E+00   2.257936E+00   2.327069E+00   2.455373E+00   2.631881E+00   2.853850E+00   3.110873E+00   3.385679E+00   3.642746E+00   3.848346E+00   3.999451E+00   4.091701E+00   4.131137E+00   4.142128E+00   4.115733E+00   4.074159E+00   4.032111E+00   3.995049E+00   3.959971E+00   3.949586E+00   3.955105E+00   4.000620E+00   4.076082E+00   4.203027E+00   4.372335E+00   4.537300E+00   4.675823E+00   4.759388E+00   4.768497E+00   4.728348E+00   4.656149E+00   4.567060E+00   4.446704E+00   4.311395E+00   4.159068E+00
   4.043910E+00   4.084185E+00   4.071462E+00   4.037341E+00   3.961007E+00   3.885240E+00   3.813831E+00   3.759761E+00   3.693337E+00   3.604457E+00   3.480438E+00   3.350545E+00   3.221711E+00   3.114475E+00   3.028016E+00   2.968843E+00   2.913983E+00   2.901302E+00   2.924744E+00   2.989500E+00   3.088645E+00   3.214936E+00   3.342594E+00   3.479193E+00   3.627774E+00   3.797898E+00   3.966188E+00   4.148108E+00   4.342166E+00   4.552085E+00   4.756586E+00   4.954920E+00   5.105390E+00   5.217770E+00   5.244029E+00   5.180295E+00   5.009229E+00   4.736412E+00   4.380616E+00   4.003795E+00   3.651674E+00   3.363626E+00   3.126549E+00   2.944883E+00   2.819385E+00   2.735555E+00   2.706737E+00   2.716445E+00   2.786870E+00   2.908564E+00   3.079944E+00   3.271832E+00   3.457639E+00   3.627906E+00   3.747566E+00   3.825836E+00   3.874108E+00   3.940801E+00   4.035908E+00   4.175480E+00   4.366555E+00   4.565935E+00   4.748948E+00   4.855942E+00   4.847427E+00   4.723789E+00   4.529935E+00   4.300988E+00   4.056502E+00   3.805142E+00   3.577324E+00   3.378045E+00   3.201114E+00   3.064929E+00   2.967249E+00   2.904946E+00   2.885247E+00   2.879791E+00   2.895408E+00   2.904090E+00   2.899234E+00   2.858460E+00   2.797995E+00   2.723628E+00   2.642485E+00   2.554759E+00   2.475397E+00   2.430331E+00   2.431087E+00   2.496650E+00   2.613273E+00   2.781667E+00   2.975540E+00   3.192966E+00   3.411770E+00   3.607593E+00   3.762875E+00   3.837432E+00   3.842319E+00   3.784125E+00   3.672112E+00   3.546327E+00   3.415463E+00   3.298314E+00   3.212114E+00   3.164310E+00   3.148588E+00   3.143419E+00   3.147729E+00   3.159674E+00   3.178702E+00   3.207408E+00   3.260119E+00   3.310930E+00   3.340475E+00   3.345922E+00   3.324651E+00   3.288005E+00   3.258481E+00   3.245175E+00   3.259958E+00   3.298172E+00   3.354554E+00   3.410232E+00   3.442421E+00   3.444316E+00   3.415197E+00   3.382206E+00   3.374970E+00   3.390108E+00   3.444734E+00   3.502623E+00   3.535413E+00   3.518913E+00   3.461774E+00   3.369383E+00   3.284188E+00   3.227614E+00   3.242703E+00   3.322188E+00   3.490697E+00   3.741383E+00   4.034086E+00   4.338565E+00   4.636306E+00   4.931696E+00   5.239866E+00   5.557109E+00   5.846896E+00   6.059790E+00   6.143423E+00   6.063116E+00   5.840262E+00   5.501844E+00   5.102588E+00   4.675333E+00   4.269551E+00   3.885881E+00   3.559932E+00   3.277860E+00   3.028171E+00   2.793533E+00   2.600820E+00   2.452316E+00   2.352025E+00   2.309036E+00   2.314028E+00   2.382458E+00   2.499642E+00   2.668918E+00   2.871843E+00   3.122606E+00   3.384944E+00   3.627215E+00   3.814653E+00   3.943629E+00   4.011526E+00   4.035296E+00   4.031439E+00   3.989856E+00   3.960544E+00   3.940788E+00   3.914739E+00   3.893147E+00   3.875633E+00   3.878311E+00   3.913918E+00   3.978935E+00   4.088423E+00   4.229312E+00   4.381894E+00   4.501069E+00   4.581703E+00   4.594328E+00   4.576001E+00   4.527728E+00   4.442891E+00   4.360896E+00   4.255164E+00   4.139277E+00
   4.118146E+00   4.210746E+00   4.262656E+00   4.250000E+00   4.208521E+00   4.125220E+00   4.065321E+00   3.997592E+00   3.909509E+00   3.779908E+00   3.619071E+00   3.459303E+00   3.315679E+00   3.197030E+00   3.116030E+00   3.068516E+00   3.036511E+00   3.024784E+00   3.037921E+00   3.091505E+00   3.171013E+00   3.276743E+00   3.404091E+00   3.532477E+00   3.672858E+00   3.816942E+00   3.980480E+00   4.159967E+00   4.383806E+00   4.596695E+00   4.814100E+00   5.006180E+00   5.181763E+00   5.289557E+00   5.336098E+00   5.285328E+00   5.156228E+00   4.925048E+00   4.611539E+00   4.239285E+00   3.877455E+00   3.554183E+00   3.295012E+00   3.101019E+00   2.959632E+00   2.877011E+00   2.846658E+00   2.876358E+00   2.957340E+00   3.077877E+00   3.237784E+00   3.413266E+00   3.594980E+00   3.735949E+00   3.842311E+00   3.909582E+00   3.973037E+00   4.057777E+00   4.187294E+00   4.376152E+00   4.611614E+00   4.858923E+00   5.051199E+00   5.164516E+00   5.161708E+00   5.043832E+00   4.842468E+00   4.609818E+00   4.365440E+00   4.127055E+00   3.916159E+00   3.719445E+00   3.534169E+00   3.381206E+00   3.237492E+00   3.137208E+00   3.067162E+00   3.019182E+00   2.985670E+00   2.954860E+00   2.920130E+00   2.866644E+00   2.804109E+00   2.741767E+00   2.669084E+00   2.616451E+00   2.575818E+00   2.565697E+00   2.601079E+00   2.681640E+00   2.828696E+00   3.010488E+00   3.222826E+00   3.449771E+00   3.653255E+00   3.812626E+00   3.942702E+00   4.020012E+00   4.008593E+00   3.951817E+00   3.841112E+00   3.725863E+00   3.609647E+00   3.505948E+00   3.425415E+00   3.372995E+00   3.342475E+00   3.343610E+00   3.354097E+00   3.379693E+00   3.413240E+00   3.449392E+00   3.492310E+00   3.513172E+00   3.511330E+00   3.486291E+00   3.433084E+00   3.358708E+00   3.270644E+00   3.190269E+00   3.133056E+00   3.100644E+00   3.091641E+00   3.086568E+00   3.077646E+00   3.064609E+00   3.046353E+00   3.046619E+00   3.069869E+00   3.129023E+00   3.219742E+00   3.329681E+00   3.413167E+00   3.460608E+00   3.453866E+00   3.415635E+00   3.354413E+00   3.319484E+00   3.333623E+00   3.424831E+00   3.583225E+00   3.817925E+00   4.090866E+00   4.376066E+00   4.642623E+00   4.915014E+00   5.189088E+00   5.481814E+00   5.739276E+00   5.936946E+00   6.021025E+00   5.969382E+00   5.783393E+00   5.506741E+00   5.158391E+00   4.773911E+00   4.398618E+00   4.036988E+00   3.707651E+00   3.425072E+00   3.169111E+00   2.936138E+00   2.729477E+00   2.576678E+00   2.472757E+00   2.422985E+00   2.430769E+00   2.485443E+00   2.601886E+00   2.752054E+00   2.948885E+00   3.172924E+00   3.409086E+00   3.626862E+00   3.804032E+00   3.901110E+00   3.955333E+00   3.968657E+00   3.953364E+00   3.917795E+00   3.893142E+00   3.872888E+00   3.862435E+00   3.836409E+00   3.818230E+00   3.802693E+00   3.816074E+00   3.857577E+00   3.934157E+00   4.037956E+00   4.145379E+00   4.244076E+00   4.295544E+00   4.320867E+00   4.320920E+00   4.298342E+00   4.258426E+00   4.217286E+00   4.165466E+00   4.084843E+00