# LPF package for  MODFLOW-2005, generated by Flopy.
         0    -1E+30         0  
         0
         0
   1.000000E+00
         0
         0
INTERNAL               1 (200E15.6) -1 #hk layer 1                    
   3.962814E+00   3.935312E+00   3.904682E+00   3.862687E+00   3.833957E+00   3.813546E+00   3.802197E+00   3.789453E+00   3.787826E+00   3.761546E+00   3.732081E+00   3.689018E+00   3.641741E+00   3.585287E+00   3.527649E+00   3.488713E+00   3.471178E+00   3.475477E+00   3.487725E+00   3.514819E+00   3.555323E+00   3.610038E+00   3.676051E+00   3.769542E+00   3.856209E+00   3.942373E+00   4.023723E+00   4.102278E+00   4.173009E+00   4.228500E+00   4.263093E+00   4.277784E+00   4.262115E+00   4.208413E+00   4.143813E+00   4.060759E+00   3.983403E+00   3.902271E+00   3.837130E+00   3.780245E+00   3.734217E+00   3.704885E+00   3.677525E+00   3.641331E+00   3.612013E+00   3.596082E+00   3.597718E+00   3.596284E+00   3.596902E+00   3.587541E+00   3.565771E+00   3.538393E+00   3.502564E+00   3.460917E+00   3.425218E+00   3.380509E+00   3.348225E+00   3.330817E+00   3.342805E+00   3.385006E+00   3.438126E+00   3.508895E+00   3.589234E+00   3.667780E+00   3.725131E+00   3.774384E+00   3.803946E+00   3.824160E+00   3.826089E+00   3.806129E+00   3.768686E+00   3.724286E+00   3.683902E+00   3.658846E+00   3.654749E+00   3.647197E+00   3.655479E+00   3.651807E+00   3.644639E+00   3.635237E+00   3.635852E+00   3.623836E+00   3.611484E+00   3.599512E+00   3.583081E+00   3.572190E+00   3.569928E+00   3.582212E+00   3.598149E+00   3.648926E+00   3.714789E+00   3.790796E+00   3.863181E+00   3.918241E+00   3.937995E+00   3.934243E+00   3.911773E+00   3.868163E+00   3.820212E+00   3.755269E+00   3.688841E+00   3.614395E+00   3.538838E+00   3.483520E+00   3.436760E+00   3.398534E+00   3.375324E+00   3.354188E+00   3.352207E+00   3.340655E+00   3.328358E+00   3.308643E+00   3.299036E+00   3.304696E+00   3.313521E+00   3.343659E+00   3.403054E+00   3.481553E+00   3.577063E+00   3.681540E+00   3.772788E+00   3.873053E+00   3.962708E+00   4.047050E+00   4.126788E+00   4.192316E+00   4.267941E+00   4.324923E+00   4.356559E+00   4.372860E+00   4.360065E+00   4.335444E+00   4.308269E+00   4.267521E+00   4.212939E+00   4.169056E+00   4.111085E+00   4.072391E+00   4.050531E+00   4.051696E+00   4.074421E+00   4.107008E+00   4.159009E+00   4.213542E+00   4.279748E+00   4.349333E+00   4.431608E+00   4.525388E+00   4.590901E+00   4.617104E+00   4.595986E+00   4.545449E+00   4.457943E+00   4.370963E+00   4.269232E+00   4.163939E+00   4.063918E+00   3.961966E+00   3.866334E+00   3.760532E+00   3.673343E+00   3.572857E+00   3.493631E+00   3.439845E+00   3.401741E+00   3.384997E+00   3.389074E+00   3.415177E+00   3.461394E+00   3.544919E+00   3.647780E+00   3.756874E+00   3.870621E+00   3.969615E+00   4.043472E+00   4.094710E+00   4.129281E+00   4.160663E+00   4.187142E+00   4.202167E+00   4.221965E+00   4.238040E+00   4.251421E+00   4.250113E+00   4.238627E+00   4.201929E+00   4.152845E+00   4.089705E+00   4.031846E+00   3.993421E+00   3.975354E+00   3.977179E+00   3.985084E+00   4.000101E+00   4.004935E+00   4.009994E+00   4.009701E+00   3.990983E+00   3.983034E+00   3.979203E+00
   3.931132E+00   3.887812E+00   3.829906E+00   3.762743E+00   3.694702E+00   3.655688E+00   3.623700E+00   3.599919E+00   3.585636E+00   3.569194E+00   3.518277E+00   3.458977E+00   3.366246E+00   3.277557E+00   3.188919E+00   3.124181E+00   3.087926E+00   3.089247E+00   3.108651E+00   3.145698E+00   3.206668E+00   3.294517E+00   3.408543E+00   3.545799E+00   3.700882E+00   3.868930E+00   4.043666E+00   4.212299E+00   4.363205E+00   4.476091E+00   4.542007E+00   4.577785E+00   4.538748E+00   4.449351E+00   4.313290E+00   4.166463E+00   4.016494E+00   3.866100E+00   3.720937E+00   3.616965E+00   3.531833E+00   3.477343E+00   3.426394E+00   3.377921E+00   3.326687E+00   3.299165E+00   3.291169E+00   3.285294E+00   3.282629E+00   3.269269E+00   3.241775E+00   3.197972E+00   3.151851E+00   3.091581E+00   3.019238E+00   2.953111E+00   2.904894E+00   2.881585E+00   2.897155E+00   2.956200E+00   3.048685E+00   3.177874E+00   3.316907E+00   3.439841E+00   3.541341E+00   3.620637E+00   3.660168E+00   3.671205E+00   3.654781E+00   3.607971E+00   3.536958E+00   3.463162E+00   3.394919E+00   3.346670E+00   3.318304E+00   3.305796E+00   3.306849E+00   3.317377E+00   3.330894E+00   3.344830E+00   3.346362E+00   3.339855E+00   3.320455E+00   3.291680E+00   3.255617E+00   3.224119E+00   3.214224E+00   3.223146E+00   3.256789E+00   3.326566E+00   3.449378E+00   3.571418E+00   3.707907E+00   3.808031E+00   3.860799E+00   3.865879E+00   3.817516E+00   3.748242E+00   3.659018E+00   3.553278E+00   3.436271E+00   3.309422E+00   3.182875E+00   3.082077E+00   3.002722E+00   2.939474E+00   2.898883E+00   2.875389E+00   2.857610E+00   2.842334E+00   2.822790E+00   2.810139E+00   2.814100E+00   2.823566E+00   2.855284E+00   2.912746E+00   2.996439E+00   3.107831E+00   3.251165E+00   3.407635E+00   3.570398E+00   3.747972E+00   3.919431E+00   4.086431E+00   4.235844E+00   4.381351E+00   4.511272E+00   4.607740E+00   4.648367E+00   4.658873E+00   4.638952E+00   4.593502E+00   4.519022E+00   4.415607E+00   4.309560E+00   4.212559E+00   4.140208E+00   4.086869E+00   4.073997E+00   4.088900E+00   4.139318E+00   4.223207E+00   4.297906E+00   4.407545E+00   4.526547E+00   4.681717E+00   4.855387E+00   5.038673E+00   5.183340E+00   5.231036E+00   5.195935E+00   5.073022E+00   4.905431E+00   4.710526E+00   4.497365E+00   4.284521E+00   4.076987E+00   3.883243E+00   3.689123E+00   3.512754E+00   3.338731E+00   3.194576E+00   3.066744E+00   2.985909E+00   2.935520E+00   2.910738E+00   2.919034E+00   2.971632E+00   3.068351E+00   3.208057E+00   3.374069E+00   3.558293E+00   3.746599E+00   3.909705E+00   4.045609E+00   4.142177E+00   4.213101E+00   4.270426E+00   4.312718E+00   4.347511E+00   4.378728E+00   4.414053E+00   4.424352E+00   4.419561E+00   4.381434E+00   4.328147E+00   4.247274E+00   4.152592E+00   4.068007E+00   4.004556E+00   4.003646E+00   4.018506E+00   4.044484E+00   4.059183E+00   4.057581E+00   4.054370E+00   4.036469E+00   4.011416E+00   3.986454E+00   3.982177E+00
   3.911488E+00   3.831591E+00   3.749230E+00   3.665465E+00   3.598563E+00   3.527648E+00   3.482203E+00   3.448292E+00   3.426452E+00   3.389886E+00   3.342280E+00   3.261503E+00   3.174476E+00   3.070349E+00   2.974360E+00   2.896987E+00   2.852967E+00   2.845633E+00   2.865855E+00   2.912113E+00   2.976079E+00   3.078741E+00   3.215290E+00   3.387017E+00   3.576390E+00   3.792640E+00   4.037151E+00   4.275656E+00   4.494405E+00   4.656367E+00   4.767181E+00   4.800321E+00   4.761762E+00   4.651725E+00   4.499730E+00   4.292252E+00   4.081739E+00   3.862699E+00   3.679595E+00   3.528266E+00   3.415665E+00   3.324961E+00   3.258773E+00   3.194144E+00   3.126558E+00   3.063307E+00   3.038680E+00   3.013635E+00   3.011687E+00   3.010669E+00   3.004152E+00   2.979015E+00   2.952975E+00   2.897734E+00   2.834723E+00   2.772736E+00   2.718015E+00   2.692124E+00   2.710051E+00   2.779520E+00   2.894074E+00   3.038991E+00   3.197344E+00   3.348195E+00   3.465631E+00   3.537046E+00   3.565920E+00   3.555168E+00   3.505707E+00   3.429923E+00   3.323930E+00   3.222782E+00   3.129856E+00   3.063101E+00   3.021149E+00   3.000889E+00   3.008821E+00   3.033649E+00   3.074810E+00   3.111349E+00   3.131323E+00   3.131714E+00   3.116862E+00   3.074334E+00   3.034432E+00   2.993343E+00   2.964934E+00   2.957649E+00   2.984406E+00   3.066591E+00   3.196151E+00   3.361963E+00   3.523673E+00   3.667729E+00   3.738720E+00   3.748449E+00   3.707819E+00   3.629858E+00   3.533918E+00   3.403608E+00   3.256015E+00   3.102025E+00   2.953226E+00   2.817371E+00   2.714442E+00   2.633782E+00   2.576597E+00   2.543481E+00   2.525637E+00   2.511972E+00   2.501999E+00   2.500741E+00   2.520016E+00   2.551888E+00   2.594717E+00   2.671285E+00   2.768415E+00   2.891746E+00   3.055241E+00   3.236141E+00   3.429007E+00   3.652019E+00   3.877229E+00   4.097052E+00   4.298717E+00   4.471650E+00   4.632605E+00   4.738060E+00   4.800075E+00   4.799147E+00   4.754577E+00   4.666451E+00   4.541408E+00   4.403001E+00   4.262441E+00   4.145062E+00   4.047194E+00   4.002360E+00   3.998069E+00   4.043332E+00   4.128595E+00   4.227595E+00   4.360139E+00   4.515831E+00   4.711712E+00   4.935548E+00   5.205800E+00   5.456133E+00   5.644112E+00   5.717985E+00   5.675798E+00   5.513084E+00   5.265953E+00   4.981398E+00   4.677356E+00   4.377486E+00   4.084213E+00   3.800519E+00   3.528461E+00   3.280696E+00   3.065001E+00   2.874884E+00   2.742688E+00   2.651681E+00   2.599947E+00   2.586481E+00   2.616616E+00   2.692660E+00   2.816024E+00   2.983822E+00   3.191600E+00   3.408226E+00   3.631775E+00   3.835840E+00   4.015960E+00   4.145662E+00   4.243174E+00   4.308865E+00   4.360795E+00   4.399267E+00   4.422186E+00   4.429625E+00   4.436516E+00   4.414756E+00   4.373317E+00   4.305706E+00   4.231042E+00   4.166788E+00   4.107075E+00   4.082721E+00   4.095061E+00   4.139983E+00   4.190732E+00   4.205689E+00   4.195656E+00   4.157513E+00   4.116019E+00   4.075575E+00   4.038930E+00   4.009448E+00
   3.896421E+00   3.808128E+00   3.706740E+00   3.617213E+00   3.544149E+00   3.483424E+00   3.426417E+00   3.386289E+00   3.348478E+00   3.304867E+00   3.237525E+00   3.161883E+00   3.060175E+00   2.958343E+00   2.860723E+00   2.787821E+00   2.737653E+00   2.721732E+00   2.738496E+00   2.785171E+00   2.846592E+00   2.943779E+00   3.080736E+00   3.263268E+00   3.475707E+00   3.717427E+00   3.982702E+00   4.263860E+00   4.515554E+00   4.715288E+00   4.849274E+00   4.914631E+00   4.876707E+00   4.795894E+00   4.626357E+00   4.406936E+00   4.158839E+00   3.903848E+00   3.670774E+00   3.491751E+00   3.347268E+00   3.228537E+00   3.124193E+00   3.027908E+00   2.943324E+00   2.872622E+00   2.826707E+00   2.790990E+00   2.786184E+00   2.799715E+00   2.824595E+00   2.847637E+00   2.863983E+00   2.863304E+00   2.830134E+00   2.784872E+00   2.741750E+00   2.726311E+00   2.749148E+00   2.821889E+00   2.941570E+00   3.095963E+00   3.256589E+00   3.401814E+00   3.504872E+00   3.551449E+00   3.541235E+00   3.483312E+00   3.397047E+00   3.283739E+00   3.157977E+00   3.024926E+00   2.914526E+00   2.825020E+00   2.781384E+00   2.772227E+00   2.795455E+00   2.835976E+00   2.895808E+00   2.947689E+00   2.992395E+00   3.008396E+00   2.996103E+00   2.955319E+00   2.894281E+00   2.836987E+00   2.786667E+00   2.764189E+00   2.783727E+00   2.851634E+00   2.984564E+00   3.145173E+00   3.331282E+00   3.491788E+00   3.600738E+00   3.640417E+00   3.616549E+00   3.548763E+00   3.453869E+00   3.323835E+00   3.169305E+00   2.995941E+00   2.832952E+00   2.694897E+00   2.574054E+00   2.487904E+00   2.433944E+00   2.393454E+00   2.380780E+00   2.366688E+00   2.370230E+00   2.384730E+00   2.415396E+00   2.465591E+00   2.529353E+00   2.615590E+00   2.713724E+00   2.834823E+00   2.981129E+00   3.154161E+00   3.349358E+00   3.570445E+00   3.812505E+00   4.058292E+00   4.279876E+00   4.463443E+00   4.608139E+00   4.703430E+00   4.741028E+00   4.728507E+00   4.661842E+00   4.551357E+00   4.399925E+00   4.236098E+00   4.082461E+00   3.944843E+00   3.856763E+00   3.807703E+00   3.816770E+00   3.888195E+00   4.005773E+00   4.150672E+00   4.329917E+00   4.554366E+00   4.812216E+00   5.115380E+00   5.423156E+00   5.738223E+00   5.979706E+00   6.085644E+00   6.044604E+00   5.856339E+00   5.551497E+00   5.188663E+00   4.810242E+00   4.451738E+00   4.092315E+00   3.748163E+00   3.424583E+00   3.138009E+00   2.888879E+00   2.700195E+00   2.550383E+00   2.444905E+00   2.391373E+00   2.380203E+00   2.412779E+00   2.497622E+00   2.634167E+00   2.831343E+00   3.050109E+00   3.292055E+00   3.531991E+00   3.766502E+00   3.957960E+00   4.112888E+00   4.208978E+00   4.281082E+00   4.318544E+00   4.338590E+00   4.336488E+00   4.333937E+00   4.301999E+00   4.279882E+00   4.230475E+00   4.188520E+00   4.154348E+00   4.128892E+00   4.137967E+00   4.184445E+00   4.258064E+00   4.340130E+00   4.393202E+00   4.414813E+00   4.385296E+00   4.322614E+00   4.236421E+00   4.155565E+00   4.091646E+00   4.036369E+00
   3.901788E+00   3.809884E+00   3.713127E+00   3.630311E+00   3.558618E+00   3.493063E+00   3.438142E+00   3.386655E+00   3.350077E+00   3.288713E+00   3.216299E+00   3.121432E+00   3.023249E+00   2.922418E+00   2.831029E+00   2.752848E+00   2.701428E+00   2.678462E+00   2.699515E+00   2.742282E+00   2.817347E+00   2.926189E+00   3.055843E+00   3.229763E+00   3.437740E+00   3.674708E+00   3.931693E+00   4.186599E+00   4.434128E+00   4.640565E+00   4.790880E+00   4.870981E+00   4.907378E+00   4.863334E+00   4.745528E+00   4.553058E+00   4.323061E+00   4.029539E+00   3.758526E+00   3.508252E+00   3.313688E+00   3.156310E+00   3.022407E+00   2.903507E+00   2.799474E+00   2.721207E+00   2.671011E+00   2.638900E+00   2.636524E+00   2.670187E+00   2.738600E+00   2.822869E+00   2.910039E+00   2.960625E+00   2.976280E+00   2.960504E+00   2.945763E+00   2.945191E+00   2.983307E+00   3.057992E+00   3.184825E+00   3.341783E+00   3.499074E+00   3.627430E+00   3.703235E+00   3.705393E+00   3.643357E+00   3.534881E+00   3.394001E+00   3.237541E+00   3.073918E+00   2.923900E+00   2.788163E+00   2.691058E+00   2.641538E+00   2.636093E+00   2.665180E+00   2.729307E+00   2.800050E+00   2.866287E+00   2.918265E+00   2.931428E+00   2.906234E+00   2.851722E+00   2.781745E+00   2.704910E+00   2.636554E+00   2.599077E+00   2.598963E+00   2.653566E+00   2.769470E+00   2.935458E+00   3.118974E+00   3.298498E+00   3.442062E+00   3.518219E+00   3.534274E+00   3.508744E+00   3.444893E+00   3.340947E+00   3.192903E+00   3.013198E+00   2.849547E+00   2.706763E+00   2.596234E+00   2.518777E+00   2.464248E+00   2.428182E+00   2.404428E+00   2.406568E+00   2.421847E+00   2.448132E+00   2.486199E+00   2.552733E+00   2.621224E+00   2.697563E+00   2.789100E+00   2.882506E+00   2.999824E+00   3.140401E+00   3.319198E+00   3.523374E+00   3.752924E+00   3.991042E+00   4.187325E+00   4.355021E+00   4.460848E+00   4.499236E+00   4.505182E+00   4.484639E+00   4.418726E+00   4.309546E+00   4.154536E+00   4.001702E+00   3.840573E+00   3.702047E+00   3.601362E+00   3.566147E+00   3.585382E+00   3.675118E+00   3.812177E+00   4.004848E+00   4.233777E+00   4.506503E+00   4.817930E+00   5.152898E+00   5.490681E+00   5.838223E+00   6.114286E+00   6.269654E+00   6.251954E+00   6.082384E+00   5.759405E+00   5.355476E+00   4.927794E+00   4.504455E+00   4.098669E+00   3.719940E+00   3.368170E+00   3.065908E+00   2.810715E+00   2.600735E+00   2.445229E+00   2.332157E+00   2.270559E+00   2.254860E+00   2.288299E+00   2.376338E+00   2.523515E+00   2.715594E+00   2.945065E+00   3.191019E+00   3.443365E+00   3.688967E+00   3.913190E+00   4.079596E+00   4.192238E+00   4.245939E+00   4.278553E+00   4.267402E+00   4.246786E+00   4.205499E+00   4.171491E+00   4.134079E+00   4.106960E+00   4.080297E+00   4.087612E+00   4.121923E+00   4.192801E+00   4.300261E+00   4.422945E+00   4.540416E+00   4.622223E+00   4.633067E+00   4.597122E+00   4.521824E+00   4.413892E+00   4.299670E+00   4.188767E+00   4.089132E+00
   3.927717E+00   3.860508E+00   3.788457E+00   3.722978E+00   3.643439E+00   3.574733E+00   3.506785E+00   3.459704E+00   3.412108E+00   3.347151E+00   3.262416E+00   3.163655E+00   3.052387E+00   2.955701E+00   2.864372E+00   2.790913E+00   2.732888E+00   2.715836E+00   2.734332E+00   2.797598E+00   2.881321E+00   2.997305E+00   3.127501E+00   3.292493E+00   3.479757E+00   3.680452E+00   3.900555E+00   4.137032E+00   4.357202E+00   4.557890E+00   4.714730E+00   4.835704E+00   4.927455E+00   4.953178E+00   4.885358E+00   4.748122E+00   4.528148E+00   4.226274E+00   3.907703E+00   3.603803E+00   3.350705E+00   3.144375E+00   2.970640E+00   2.836916E+00   2.728156E+00   2.642654E+00   2.593685E+00   2.572459E+00   2.599667E+00   2.666932E+00   2.776089E+00   2.913396E+00   3.051613E+00   3.166126E+00   3.228245E+00   3.264172E+00   3.281597E+00   3.301607E+00   3.351478E+00   3.446201E+00   3.577112E+00   3.732855E+00   3.894856E+00   4.003064E+00   4.042949E+00   3.995645E+00   3.872875E+00   3.711039E+00   3.517842E+00   3.313206E+00   3.125188E+00   2.946221E+00   2.803144E+00   2.694295E+00   2.638779E+00   2.634057E+00   2.659459E+00   2.716697E+00   2.789898E+00   2.847558E+00   2.889734E+00   2.890439E+00   2.852828E+00   2.789872E+00   2.706585E+00   2.613652E+00   2.526468E+00   2.465185E+00   2.452127E+00   2.497651E+00   2.601521E+00   2.760632E+00   2.955698E+00   3.156190E+00   3.335153E+00   3.460848E+00   3.530787E+00   3.550840E+00   3.522654E+00   3.437148E+00   3.299922E+00   3.144238E+00   2.984713E+00   2.847890E+00   2.743845E+00   2.675405E+00   2.636001E+00   2.605950E+00   2.594532E+00   2.591928E+00   2.608968E+00   2.638966E+00   2.690860E+00   2.750263E+00   2.812447E+00   2.870101E+00   2.920768E+00   2.980408E+00   3.059994E+00   3.168839E+00   3.312898E+00   3.482435E+00   3.678900E+00   3.871442E+00   4.035975E+00   4.142612E+00   4.185033E+00   4.175909E+00   4.163114E+00   4.129623E+00   4.091784E+00   4.017624E+00   3.917288E+00   3.791250E+00   3.648159E+00   3.509223E+00   3.405003E+00   3.358414E+00   3.389170E+00   3.480196E+00   3.632814E+00   3.854761E+00   4.108603E+00   4.401735E+00   4.728064E+00   5.082628E+00   5.441245E+00   5.797811E+00   6.093168E+00   6.275711E+00   6.311115E+00   6.158689E+00   5.832665E+00   5.430034E+00   4.998599E+00   4.558650E+00   4.133030E+00   3.731636E+00   3.385101E+00   3.080461E+00   2.821003E+00   2.606236E+00   2.437004E+00   2.311197E+00   2.234187E+00   2.206424E+00   2.235766E+00   2.315164E+00   2.456149E+00   2.644320E+00   2.873657E+00   3.128183E+00   3.389275E+00   3.644382E+00   3.860946E+00   4.029558E+00   4.142132E+00   4.208368E+00   4.219259E+00   4.214933E+00   4.166810E+00   4.130016E+00   4.082671E+00   4.052311E+00   4.026318E+00   4.033292E+00   4.064795E+00   4.129504E+00   4.236855E+00   4.387691E+00   4.552206E+00   4.686860E+00   4.763510E+00   4.775484E+00   4.728502E+00   4.653903E+00   4.558429E+00   4.431983E+00   4.291132E+00   4.144890E+00
   3.979162E+00   3.955939E+00   3.915874E+00   3.845862E+00   3.786886E+00   3.701845E+00   3.639900E+00   3.584668E+00   3.537912E+00   3.469120E+00   3.373840E+00   3.259902E+00   3.136214E+00   3.031771E+00   2.942193E+00   2.870877E+00   2.818945E+00   2.790245E+00   2.819582E+00   2.883103E+00   2.984084E+00   3.110099E+00   3.236719E+00   3.391166E+00   3.556409E+00   3.739520E+00   3.940668E+00   4.129768E+00   4.329858E+00   4.527587E+00   4.720661E+00   4.874612E+00   4.992295E+00   5.066499E+00   5.073128E+00   4.979043E+00   4.777937E+00   4.474733E+00   4.123281E+00   3.773163E+00   3.475908E+00   3.219086E+00   3.016097E+00   2.855025E+00   2.731489E+00   2.650618E+00   2.602127E+00   2.606316E+00   2.658804E+00   2.753595E+00   2.901466E+00   3.083223E+00   3.264387E+00   3.425152E+00   3.535573E+00   3.600730E+00   3.640915E+00   3.670991E+00   3.742359E+00   3.855544E+00   4.003767E+00   4.174286E+00   4.336421E+00   4.435008E+00   4.437985E+00   4.351479E+00   4.188788E+00   3.979830E+00   3.749439E+00   3.520209E+00   3.295537E+00   3.104412E+00   2.943764E+00   2.832688E+00   2.759933E+00   2.730419E+00   2.735448E+00   2.771997E+00   2.824017E+00   2.866887E+00   2.880389E+00   2.862664E+00   2.808296E+00   2.741538E+00   2.650875E+00   2.550341E+00   2.459567E+00   2.393466E+00   2.381711E+00   2.431938E+00   2.542287E+00   2.698697E+00   2.900275E+00   3.110174E+00   3.316179E+00   3.494236E+00   3.620951E+00   3.674371E+00   3.670950E+00   3.599947E+00   3.484287E+00   3.344307E+00   3.200554E+00   3.072201E+00   2.982128E+00   2.926082E+00   2.895741E+00   2.879281E+00   2.873716E+00   2.872885E+00   2.885025E+00   2.913964E+00   2.964886E+00   3.022046E+00   3.065842E+00   3.107937E+00   3.121687E+00   3.138537E+00   3.170083E+00   3.220610E+00   3.308030E+00   3.420473E+00   3.552904E+00   3.682655E+00   3.774084E+00   3.813860E+00   3.802236E+00   3.771154E+00   3.743826E+00   3.736558E+00   3.735366E+00   3.735953E+00   3.699058E+00   3.620087E+00   3.521166E+00   3.398190E+00   3.291802E+00   3.229716E+00   3.249850E+00   3.343759E+00   3.513110E+00   3.754152E+00   4.030982E+00   4.333377E+00   4.646411E+00   4.979295E+00   5.326444E+00   5.671060E+00   5.978957E+00   6.190776E+00   6.240410E+00   6.110861E+00   5.835062E+00   5.472868E+00   5.047373E+00   4.617338E+00   4.185150E+00   3.797883E+00   3.451079E+00   3.153037E+00   2.899298E+00   2.672915E+00   2.492202E+00   2.357114E+00   2.272616E+00   2.236513E+00   2.258209E+00   2.327407E+00   2.455770E+00   2.632329E+00   2.854322E+00   3.111335E+00   3.386091E+00   3.643062E+00   3.848526E+00   3.999462E+00   4.091535E+00   4.130799E+00   4.141631E+00   4.115099E+00   4.073425E+00   4.031314E+00   3.994235E+00   3.959177E+00   3.948832E+00   3.954400E+00   3.999953E+00   4.075439E+00   4.202373E+00   4.371633E+00   4.536522E+00   4.674957E+00   4.758444E+00   4.767516E+00   4.727373E+00   4.655232E+00   4.566256E+00   4.446060E+00   4.310952E+00   4.158847E+00
   4.043828E+00   4.084015E+00   4.071197E+00   4.036965E+00   3.960500E+00   3.884581E+00   3.813008E+00   3.758775E+00   3.692204E+00   3.603209E+00   3.479118E+00   3.349195E+00   3.220369E+00   3.113165E+00   3.026758E+00   2.967653E+00   2.912883E+00   2.900287E+00   2.923810E+00   2.988633E+00   3.087826E+00   3.214148E+00   3.341822E+00   3.478426E+00   3.626991E+00   3.797064E+00   3.965278E+00   4.147095E+00   4.341019E+00   4.550788E+00   4.755141E+00   4.953355E+00   5.103759E+00   5.216142E+00   5.242484E+00   5.178916E+00   5.008088E+00   4.735548E+00   4.380030E+00   4.003454E+00   3.651536E+00   3.363641E+00   3.126681E+00   2.945107E+00   2.819678E+00   2.735899E+00   2.707120E+00   2.716860E+00   2.787311E+00   2.909031E+00   3.080446E+00   3.272377E+00   3.458237E+00   3.628572E+00   3.748305E+00   3.826641E+00   3.874964E+00   3.941692E+00   4.036813E+00   4.176373E+00   4.367407E+00   4.566721E+00   4.749644E+00   4.856537E+00   4.847922E+00   4.724207E+00   4.530313E+00   4.301347E+00   4.056865E+00   3.805524E+00   3.577742E+00   3.378504E+00   3.201625E+00   3.065498E+00   2.967876E+00   2.905625E+00   2.885964E+00   2.880523E+00   2.896122E+00   2.904752E+00   2.899801E+00   2.858901E+00   2.798288E+00   2.723779E+00   2.642509E+00   2.554688E+00   2.475266E+00   2.430171E+00   2.430931E+00   2.496517E+00   2.613193E+00   2.781664E+00   2.975653E+00   3.193231E+00   3.412219E+00   3.608242E+00   3.763726E+00   3.838455E+00   3.843462E+00   3.785316E+00   3.673280E+00   3.547415E+00   3.416425E+00   3.299121E+00   3.212759E+00   3.164797E+00   3.148924E+00   3.143615E+00   3.147797E+00   3.159623E+00   3.178548E+00   3.207164E+00   3.259796E+00   3.310540E+00   3.340036E+00   3.345442E+00   3.324143E+00   3.287476E+00   3.257935E+00   3.244620E+00   3.259402E+00   3.297621E+00   3.354014E+00   3.409717E+00   3.441941E+00   3.443892E+00   3.414843E+00   3.381928E+00   3.374759E+00   3.389956E+00   3.444626E+00   3.502555E+00   3.535388E+00   3.518939E+00   3.461860E+00   3.369537E+00   3.284418E+00   3.227928E+00   3.243104E+00   3.322670E+00   3.491255E+00   3.742015E+00   4.034784E+00   4.339314E+00   4.637091E+00   4.932497E+00   5.240676E+00   5.557915E+00   5.847689E+00   6.060546E+00   6.144122E+00   6.063735E+00   5.840791E+00   5.502271E+00   5.102918E+00   4.675572E+00   4.269719E+00   3.885996E+00   3.560014E+00   3.277930E+00   3.028247E+00   2.793634E+00   2.600955E+00   2.452492E+00   2.352241E+00   2.309296E+00   2.314331E+00   2.382804E+00   2.500025E+00   2.669327E+00   2.872256E+00   3.122994E+00   3.385269E+00   3.627433E+00   3.814724E+00   3.943535E+00   4.011262E+00   4.034878E+00   4.030882E+00   3.989190E+00   3.959798E+00   3.939998E+00   3.913948E+00   3.892383E+00   3.874921E+00   3.877656E+00   3.913312E+00   3.978357E+00   4.087850E+00   4.228707E+00   4.381230E+00   4.500332E+00   4.580903E+00   4.593491E+00   4.575159E+00   4.526929E+00   4.442186E+00   4.360328E+00   4.254766E+00   4.139074E+00
   4.118063E+00   4.210570E+00   4.262372E+00   4.249584E+00   4.207943E+00   4.124461E+00   4.064360E+00   3.996434E+00   3.908178E+00   3.778455E+00   3.617553E+00   3.457770E+00   3.314169E+00   3.195573E+00   3.114649E+00   3.067233E+00   3.035346E+00   3.023747E+00   3.037014E+00   3.090712E+00   3.170316E+00   3.276121E+00   3.403520E+00   3.531932E+00   3.672309E+00   3.816349E+00   3.979809E+00   4.159174E+00   4.382843E+00   4.595537E+00   4.812747E+00   5.004663E+00   5.180136E+00   5.287904E+00   5.334502E+00   5.283880E+00   5.155004E+00   4.924098E+00   4.610873E+00   4.238880E+00   3.877275E+00   3.554176E+00   3.295136E+00   3.101248E+00   2.959939E+00   2.877378E+00   2.847066E+00   2.876803E+00   2.957816E+00   3.078382E+00   3.238322E+00   3.413842E+00   3.595605E+00   3.736629E+00   3.843050E+00   3.910375E+00   3.973871E+00   4.058636E+00   4.188161E+00   4.377001E+00   4.612424E+00   4.859667E+00   5.051858E+00   5.165084E+00   5.162183E+00   5.044234E+00   4.842829E+00   4.610158E+00   4.365782E+00   4.127417E+00   3.916556E+00   3.719893E+00   3.534670E+00   3.381770E+00   3.238112E+00   3.137873E+00   3.067857E+00   3.019878E+00   2.986336E+00   2.955458E+00   2.920630E+00   2.867013E+00   2.804332E+00   2.741854E+00   2.669055E+00   2.616335E+00   2.575651E+00   2.565513E+00   2.600906E+00   2.681507E+00   2.828628E+00   3.010522E+00   3.223000E+00   3.450130E+00   3.653830E+00   3.813425E+00   3.943724E+00   4.021224E+00   4.009931E+00   3.953202E+00   3.842469E+00   3.727133E+00   3.610782E+00   3.506916E+00   3.426207E+00   3.373616E+00   3.342937E+00   3.343926E+00   3.354276E+00   3.379748E+00   3.413182E+00   3.449234E+00   3.492064E+00   3.512853E+00   3.510954E+00   3.485874E+00   3.432636E+00   3.358241E+00   3.270168E+00   3.189794E+00   3.132589E+00   3.100190E+00   3.091207E+00   3.086165E+00   3.077279E+00   3.064286E+00   3.046074E+00   3.046384E+00   3.069672E+00   3.128856E+00   3.219593E+00   3.329548E+00   3.413051E+00   3.460518E+00   3.453815E+00   3.415638E+00   3.354487E+00   3.319634E+00   3.333853E+00   3.425136E+00   3.583601E+00   3.818369E+00   4.091367E+00   4.376611E+00   4.643193E+00   4.915599E+00   5.189675E+00   5.482405E+00   5.739865E+00   5.937529E+00   6.021586E+00   5.969923E+00   5.783897E+00   5.507201E+00   5.158796E+00   4.774262E+00   4.398929E+00   4.037264E+00   3.707901E+00   3.425304E+00   3.169331E+00   2.936357E+00   2.729704E+00   2.576919E+00   2.473012E+00   2.423259E+00   2.431062E+00   2.485755E+00   2.602211E+00   2.752377E+00   2.949189E+00   3.173182E+00   3.409264E+00   3.626921E+00   3.803949E+00   3.900871E+00   3.954944E+00   3.968130E+00   3.952725E+00   3.917072E+00   3.892371E+00   3.872102E+00   3.861666E+00   3.835690E+00   3.817570E+00   3.802098E+00   3.815533E+00   3.857071E+00   3.933664E+00   4.037446E+00   4.144827E+00   4.243467E+00   4.294886E+00   4.320172E+00   4.320219E+00   4.297667E+00   4.257823E+00   4.216791E+00   4.165116E+00   4.084664E+00