# LPF package for  MODFLOW-2005, generated by Flopy.
         0    -1E+30         0  
         0
         0
   1.000000E+00
         0
         0
INTERNAL               1 (200E15.6) -1 #hk layer 1                    
   3.962806E+00   3.935294E+00   3.904658E+00   3.862654E+00   3.833917E+00   3.813496E+00   3.802143E+00   3.789397E+00   3.787776E+00   3.761508E+00   3.732066E+00   3.689029E+00   3.641784E+00   3.585364E+00   3.527756E+00   3.488844E+00   3.471328E+00   3.475639E+00   3.487888E+00   3.514974E+00   3.555470E+00   3.610179E+00   3.676192E+00   3.769694E+00   3.856375E+00   3.942558E+00   4.023932E+00   4.102510E+00   4.173260E+00   4.228761E+00   4.263355E+00   4.278039E+00   4.262354E+00   4.208628E+00   4.143994E+00   4.060900E+00   3.983504E+00   3.902338E+00   3.837173E+00   3.780279E+00   3.734258E+00   3.704952E+00   3.677632E+00   3.641486E+00   3.612225E+00   3.596353E+00   3.598047E+00   3.596658E+00   3.597308E+00   3.587957E+00   3.566175E+00   3.538764E+00   3.502884E+00   3.461171E+00   3.425393E+00   3.380599E+00   3.348230E+00   3.330745E+00   3.342661E+00   3.384801E+00   3.437867E+00   3.508595E+00   3.588904E+00   3.667434E+00   3.724780E+00   3.774037E+00   3.803617E+00   3.823854E+00   3.825814E+00   3.805888E+00   3.768484E+00   3.724126E+00   3.683791E+00   3.658779E+00   3.654728E+00   3.647216E+00   3.655536E+00   3.651893E+00   3.644744E+00   3.635356E+00   3.635975E+00   3.623953E+00   3.611595E+00   3.599612E+00   3.583172E+00   3.572271E+00   3.569995E+00   3.582267E+00   3.598192E+00   3.648958E+00   3.714812E+00   3.790813E+00   3.863186E+00   3.918237E+00   3.937981E+00   3.934222E+00   3.911741E+00   3.868124E+00   3.820161E+00   3.755207E+00   3.688771E+00   3.614328E+00   3.538781E+00   3.483477E+00   3.436739E+00   3.398539E+00   3.375359E+00   3.354258E+00   3.352313E+00   3.340793E+00   3.328526E+00   3.308838E+00   3.299257E+00   3.304944E+00   3.313796E+00   3.343959E+00   3.403379E+00   3.481900E+00   3.577435E+00   3.681931E+00   3.773196E+00   3.873476E+00   3.963146E+00   4.047502E+00   4.127253E+00   4.192793E+00   4.268430E+00   4.325420E+00   4.357061E+00   4.373356E+00   4.360539E+00   4.335887E+00   4.308668E+00   4.267862E+00   4.213214E+00   4.169257E+00   4.111207E+00   4.072434E+00   4.050495E+00   4.051584E+00   4.074241E+00   4.106769E+00   4.158725E+00   4.213222E+00   4.279417E+00   4.349015E+00   4.431325E+00   4.525162E+00   4.590750E+00   4.617044E+00   4.596029E+00   4.545608E+00   4.458214E+00   4.371343E+00   4.269701E+00   4.164472E+00   4.064492E+00   3.962558E+00   3.866923E+00   3.761094E+00   3.673860E+00   3.573310E+00   3.494007E+00   3.440142E+00   3.401963E+00   3.385153E+00   3.389177E+00   3.415242E+00   3.461444E+00   3.544974E+00   3.647858E+00   3.756986E+00   3.870770E+00   3.969801E+00   4.043689E+00   4.094954E+00   4.129548E+00   4.160950E+00   4.187448E+00   4.202487E+00   4.222299E+00   4.238386E+00   4.251776E+00   4.250475E+00   4.238995E+00   4.202301E+00   4.153221E+00   4.090078E+00   4.032221E+00   3.993804E+00   3.975749E+00   3.977590E+00   3.985509E+00   4.000534E+00   4.005360E+00   4.010393E+00   4.010054E+00   3.991266E+00   3.983231E+00   3.979307E+00
   3.931110E+00   3.887768E+00   3.829848E+00   3.762674E+00   3.694623E+00   3.655601E+00   3.623607E+00   3.599833E+00   3.585563E+00   3.569146E+00   3.518265E+00   3.459012E+00   3.366337E+00   3.277704E+00   3.189112E+00   3.124413E+00   3.088187E+00   3.089525E+00   3.108932E+00   3.145969E+00   3.206924E+00   3.294761E+00   3.408785E+00   3.546048E+00   3.701158E+00   3.869248E+00   4.044032E+00   4.212719E+00   4.363676E+00   4.476595E+00   4.542519E+00   4.578286E+00   4.539213E+00   4.449758E+00   4.313622E+00   4.166709E+00   4.016658E+00   3.866196E+00   3.720987E+00   3.616997E+00   3.531878E+00   3.477434E+00   3.426552E+00   3.378167E+00   3.327029E+00   3.299609E+00   3.291712E+00   3.285918E+00   3.283305E+00   3.269966E+00   3.242451E+00   3.198592E+00   3.152383E+00   3.091999E+00   3.019526E+00   2.953260E+00   2.904905E+00   2.881470E+00   2.896927E+00   2.955871E+00   3.048267E+00   3.177378E+00   3.316350E+00   3.439247E+00   3.540728E+00   3.620026E+00   3.659576E+00   3.670648E+00   3.654273E+00   3.607525E+00   3.536581E+00   3.462858E+00   3.394692E+00   3.346520E+00   3.318230E+00   3.305794E+00   3.306909E+00   3.317488E+00   3.331044E+00   3.345006E+00   3.346548E+00   3.340040E+00   3.320628E+00   3.291839E+00   3.255761E+00   3.224247E+00   3.214332E+00   3.223232E+00   3.256856E+00   3.326614E+00   3.449416E+00   3.571443E+00   3.707918E+00   3.808020E+00   3.860768E+00   3.865823E+00   3.817442E+00   3.748145E+00   3.658902E+00   3.553147E+00   3.436131E+00   3.309290E+00   3.182759E+00   3.081993E+00   3.002676E+00   2.939476E+00   2.898939E+00   2.875500E+00   2.857779E+00   2.842558E+00   2.823065E+00   2.810461E+00   2.814468E+00   2.823979E+00   2.855736E+00   2.913239E+00   2.996972E+00   3.108407E+00   3.251785E+00   3.408300E+00   3.571106E+00   3.748724E+00   3.920227E+00   4.087268E+00   4.236722E+00   4.382269E+00   4.512226E+00   4.608719E+00   4.649354E+00   4.659847E+00   4.639888E+00   4.594369E+00   4.519795E+00   4.416260E+00   4.310079E+00   4.212930E+00   4.140430E+00   4.086940E+00   4.073925E+00   4.088687E+00   4.138972E+00   4.222743E+00   4.297345E+00   4.406917E+00   4.525887E+00   4.681073E+00   4.854803E+00   5.038196E+00   5.183015E+00   5.230903E+00   5.196026E+00   5.073342E+00   4.905978E+00   4.711267E+00   4.498262E+00   4.285527E+00   4.078050E+00   3.884315E+00   3.690156E+00   3.513713E+00   3.339580E+00   3.195300E+00   3.067332E+00   2.986365E+00   2.935854E+00   2.910966E+00   2.919177E+00   2.971719E+00   3.068413E+00   3.208127E+00   3.374176E+00   3.558462E+00   3.746837E+00   3.910018E+00   4.045988E+00   4.142615E+00   4.213589E+00   4.270957E+00   4.313286E+00   4.348114E+00   4.379360E+00   4.414714E+00   4.425031E+00   4.420254E+00   4.382133E+00   4.328850E+00   4.247979E+00   4.153297E+00   4.068716E+00   4.005276E+00   4.004395E+00   4.019293E+00   4.045304E+00   4.060015E+00   4.058395E+00   4.055131E+00   4.037134E+00   4.011950E+00   3.986828E+00   3.982371E+00
   3.911453E+00   3.831524E+00   3.749143E+00   3.665364E+00   3.598456E+00   3.527547E+00   3.482106E+00   3.448213E+00   3.426398E+00   3.389870E+00   3.342315E+00   3.261599E+00   3.174639E+00   3.070582E+00   2.974650E+00   2.897319E+00   2.853328E+00   2.846005E+00   2.866222E+00   2.912465E+00   2.976408E+00   3.079050E+00   3.215589E+00   3.387324E+00   3.576726E+00   3.793030E+00   4.037613E+00   4.276204E+00   4.495032E+00   4.657052E+00   4.767890E+00   4.801012E+00   4.762399E+00   4.652267E+00   4.500156E+00   4.292552E+00   4.081916E+00   3.862774E+00   3.679601E+00   3.528244E+00   3.415657E+00   3.325009E+00   3.258910E+00   3.194392E+00   3.126931E+00   3.063809E+00   3.039305E+00   3.014361E+00   3.012488E+00   3.011505E+00   3.004980E+00   2.979783E+00   2.953642E+00   2.898263E+00   2.835090E+00   2.772932E+00   2.718043E+00   2.691996E+00   2.709780E+00   2.779121E+00   2.893559E+00   3.038373E+00   3.196646E+00   3.347440E+00   3.464844E+00   3.536257E+00   3.565150E+00   3.554440E+00   3.505038E+00   3.429324E+00   3.323414E+00   3.222353E+00   3.129520E+00   3.062857E+00   3.020997E+00   3.000824E+00   3.008833E+00   3.033725E+00   3.074939E+00   3.111515E+00   3.131511E+00   3.131909E+00   3.117055E+00   3.074517E+00   3.034600E+00   2.993492E+00   2.965060E+00   2.957752E+00   2.984487E+00   3.066657E+00   3.196202E+00   3.362003E+00   3.523693E+00   3.667722E+00   3.738677E+00   3.748367E+00   3.707697E+00   3.629700E+00   3.533730E+00   3.403400E+00   3.255800E+00   3.101821E+00   2.953050E+00   2.817238E+00   2.714364E+00   2.633770E+00   2.576654E+00   2.543614E+00   2.525844E+00   2.512253E+00   2.502347E+00   2.501147E+00   2.520482E+00   2.552409E+00   2.595287E+00   2.671901E+00   2.769077E+00   2.892452E+00   3.056003E+00   3.236958E+00   3.429885E+00   3.652964E+00   3.878245E+00   4.098142E+00   4.299874E+00   4.472866E+00   4.633875E+00   4.739366E+00   4.801393E+00   4.800441E+00   4.755815E+00   4.667591E+00   4.542411E+00   4.403841E+00   4.263095E+00   4.145522E+00   4.047455E+00   4.002431E+00   3.997952E+00   4.043030E+00   4.128112E+00   4.226947E+00   4.359352E+00   4.514946E+00   4.710772E+00   4.934609E+00   5.204930E+00   5.455405E+00   5.643595E+00   5.717746E+00   5.675883E+00   5.513501E+00   5.266674E+00   4.982388E+00   4.678548E+00   4.378811E+00   4.085593E+00   3.801881E+00   3.529740E+00   3.281846E+00   3.065994E+00   2.875704E+00   2.743339E+00   2.652171E+00   2.600290E+00   2.586701E+00   2.616738E+00   2.692718E+00   2.816054E+00   2.983863E+00   3.191687E+00   3.408387E+00   3.632029E+00   3.836190E+00   4.016411E+00   4.146197E+00   4.243784E+00   4.309531E+00   4.361511E+00   4.400031E+00   4.422991E+00   4.430460E+00   4.437376E+00   4.415630E+00   4.374204E+00   4.306599E+00   4.231946E+00   4.167705E+00   4.108015E+00   4.083698E+00   4.096097E+00   4.141085E+00   4.191895E+00   4.206872E+00   4.196807E+00   4.158576E+00   4.116943E+00   4.076313E+00   4.039447E+00   4.009713E+00
   3.896372E+00   3.808037E+00   3.706624E+00   3.617091E+00   3.544033E+00   3.483329E+00   3.426352E+00   3.386259E+00   3.348494E+00   3.304939E+00   3.237661E+00   3.162090E+00   3.060458E+00   2.958695E+00   2.861131E+00   2.788268E+00   2.738119E+00   2.722199E+00   2.738945E+00   2.785590E+00   2.846973E+00   2.944123E+00   3.081059E+00   3.263591E+00   3.476061E+00   3.717837E+00   3.983194E+00   4.264449E+00   4.516232E+00   4.716040E+00   4.850059E+00   4.915401E+00   4.877407E+00   4.796487E+00   4.626804E+00   4.407226E+00   4.158977E+00   3.903860E+00   3.670702E+00   3.491635E+00   3.347161E+00   3.228484E+00   3.124232E+00   3.028067E+00   2.943620E+00   2.873062E+00   2.827285E+00   2.791687E+00   2.786972E+00   2.800562E+00   2.825456E+00   2.848460E+00   2.864714E+00   2.863899E+00   2.830553E+00   2.785101E+00   2.741788E+00   2.726175E+00   2.748850E+00   2.821448E+00   2.941002E+00   3.095282E+00   3.255820E+00   3.400983E+00   3.504010E+00   3.550586E+00   3.540392E+00   3.482510E+00   3.396300E+00   3.283062E+00   3.157380E+00   3.024416E+00   2.914109E+00   2.824696E+00   2.781149E+00   2.772078E+00   2.795387E+00   2.835977E+00   2.895864E+00   2.947794E+00   2.992535E+00   3.008557E+00   2.996271E+00   2.955489E+00   2.894442E+00   2.837134E+00   2.786797E+00   2.764301E+00   2.783820E+00   2.851714E+00   2.984633E+00   3.145231E+00   3.331320E+00   3.491795E+00   3.600698E+00   3.640322E+00   3.616397E+00   3.548557E+00   3.453616E+00   3.323552E+00   3.169010E+00   2.995661E+00   2.832711E+00   2.694712E+00   2.573940E+00   2.487872E+00   2.434004E+00   2.393607E+00   2.381027E+00   2.367023E+00   2.370648E+00   2.385220E+00   2.415951E+00   2.466205E+00   2.530013E+00   2.616291E+00   2.714459E+00   2.835592E+00   2.981937E+00   3.155015E+00   3.350267E+00   3.571425E+00   3.813563E+00   4.059438E+00   4.281101E+00   4.464739E+00   4.609494E+00   4.704823E+00   4.742425E+00   4.729878E+00   4.663147E+00   4.552553E+00   4.400969E+00   4.236956E+00   4.083127E+00   3.945297E+00   3.857013E+00   3.807750E+00   3.816617E+00   3.887837E+00   4.005213E+00   4.149924E+00   4.329005E+00   4.553322E+00   4.811089E+00   5.114232E+00   5.422067E+00   5.737277E+00   5.978995E+00   6.085253E+00   6.044593E+00   5.856722E+00   5.552247E+00   5.189719E+00   4.811524E+00   4.453171E+00   4.093797E+00   3.749608E+00   3.425914E+00   3.139179E+00   2.889862E+00   2.700988E+00   2.550988E+00   2.445334E+00   2.391649E+00   2.380348E+00   2.412825E+00   2.497603E+00   2.634117E+00   2.831304E+00   3.050118E+00   3.292147E+00   3.532187E+00   3.766814E+00   3.958384E+00   4.113418E+00   4.209589E+00   4.281757E+00   4.319266E+00   4.339360E+00   4.337292E+00   4.334772E+00   4.302851E+00   4.280755E+00   4.231362E+00   4.189431E+00   4.155291E+00   4.129876E+00   4.139014E+00   4.185579E+00   4.259302E+00   4.341477E+00   4.394632E+00   4.416273E+00   4.386718E+00   4.323924E+00   4.237548E+00   4.156458E+00   4.092264E+00   4.036684E+00
   3.901722E+00   3.809772E+00   3.712991E+00   3.630178E+00   3.558512E+00   3.493003E+00   3.438141E+00   3.386721E+00   3.350217E+00   3.288934E+00   3.216600E+00   3.121814E+00   3.023707E+00   2.922939E+00   2.831595E+00   2.753439E+00   2.702022E+00   2.679037E+00   2.700056E+00   2.742769E+00   2.817775E+00   2.926562E+00   3.056178E+00   3.230087E+00   3.438084E+00   3.675101E+00   3.932159E+00   4.187150E+00   4.434772E+00   4.641283E+00   4.791634E+00   4.871719E+00   4.908054E+00   4.863893E+00   4.745935E+00   4.553292E+00   4.323126E+00   4.029461E+00   3.758346E+00   3.508016E+00   3.313448E+00   3.156110E+00   3.022291E+00   2.903507E+00   2.799615E+00   2.721499E+00   2.671454E+00   2.639479E+00   2.637214E+00   2.670955E+00   2.739411E+00   2.823670E+00   2.910775E+00   2.961234E+00   2.976714E+00   2.960740E+00   2.945797E+00   2.945036E+00   2.982984E+00   3.057523E+00   3.184230E+00   3.341081E+00   3.498296E+00   3.626602E+00   3.702385E+00   3.704545E+00   3.642532E+00   3.534090E+00   3.393256E+00   3.236853E+00   3.073296E+00   2.923351E+00   2.787693E+00   2.690668E+00   2.641227E+00   2.635858E+00   2.665018E+00   2.729207E+00   2.800006E+00   2.866292E+00   2.918315E+00   2.931514E+00   2.906345E+00   2.851849E+00   2.781876E+00   2.705036E+00   2.636673E+00   2.599188E+00   2.599065E+00   2.653660E+00   2.769556E+00   2.935534E+00   3.119028E+00   3.298520E+00   3.442030E+00   3.518116E+00   3.534093E+00   3.508488E+00   3.444575E+00   3.340582E+00   3.192518E+00   3.012832E+00   2.849228E+00   2.706514E+00   2.596076E+00   2.518725E+00   2.464313E+00   2.428369E+00   2.404731E+00   2.406982E+00   2.422360E+00   2.448729E+00   2.486861E+00   2.553446E+00   2.621969E+00   2.698321E+00   2.789863E+00   2.883267E+00   3.000591E+00   3.141180E+00   3.320009E+00   3.524234E+00   3.753850E+00   3.992046E+00   4.188403E+00   4.356170E+00   4.462048E+00   4.500471E+00   4.506428E+00   4.485869E+00   4.419898E+00   4.310622E+00   4.155476E+00   4.002479E+00   3.841169E+00   3.702458E+00   3.601586E+00   3.566187E+00   3.585234E+00   3.674777E+00   3.811640E+00   4.004114E+00   4.232861E+00   4.505435E+00   4.816749E+00   5.151665E+00   5.489478E+00   5.837140E+00   6.113417E+00   6.269095E+00   6.251776E+00   6.082613E+00   5.760013E+00   5.356405E+00   4.928965E+00   4.505771E+00   4.100038E+00   3.721269E+00   3.369381E+00   3.066953E+00   2.811570E+00   2.601396E+00   2.445702E+00   2.332458E+00   2.270711E+00   2.254889E+00   2.288234E+00   2.376210E+00   2.523359E+00   2.715445E+00   2.944962E+00   3.190996E+00   3.443447E+00   3.689169E+00   3.913513E+00   4.080024E+00   4.192752E+00   4.246517E+00   4.279177E+00   4.268058E+00   4.247468E+00   4.206198E+00   4.172204E+00   4.134806E+00   4.107710E+00   4.081079E+00   4.088450E+00   4.122843E+00   4.193838E+00   4.301437E+00   4.424286E+00   4.541911E+00   4.623837E+00   4.634724E+00   4.598742E+00   4.523316E+00   4.415173E+00   4.300676E+00   4.189456E+00   4.089480E+00
   3.927638E+00   3.860375E+00   3.788305E+00   3.722841E+00   3.643357E+00   3.574730E+00   3.506876E+00   3.459904E+00   3.412422E+00   3.347577E+00   3.262946E+00   3.164272E+00   3.053075E+00   2.956440E+00   2.865139E+00   2.791683E+00   2.733632E+00   2.716535E+00   2.734968E+00   2.798159E+00   2.881798E+00   2.997708E+00   3.127848E+00   3.292811E+00   3.480081E+00   3.680811E+00   3.900975E+00   4.137537E+00   4.357787E+00   4.558545E+00   4.715417E+00   4.836386E+00   4.928078E+00   4.953687E+00   4.885710E+00   4.748295E+00   4.528139E+00   4.226103E+00   3.907407E+00   3.603436E+00   3.350314E+00   3.144011E+00   2.970348E+00   2.836734E+00   2.728113E+00   2.642768E+00   2.593958E+00   2.572883E+00   2.600221E+00   2.667588E+00   2.776813E+00   2.914135E+00   3.052307E+00   3.166708E+00   3.228655E+00   3.264380E+00   3.281600E+00   3.301417E+00   3.351123E+00   3.445707E+00   3.576509E+00   3.732168E+00   3.894115E+00   4.002303E+00   4.042190E+00   3.994905E+00   3.872161E+00   3.710349E+00   3.517182E+00   3.312577E+00   3.124595E+00   2.945676E+00   2.802654E+00   2.693865E+00   2.638411E+00   2.633747E+00   2.659207E+00   2.716498E+00   2.789750E+00   2.847459E+00   2.889687E+00   2.890437E+00   2.852869E+00   2.789946E+00   2.706680E+00   2.613755E+00   2.526575E+00   2.465291E+00   2.452234E+00   2.497759E+00   2.601625E+00   2.760722E+00   2.955767E+00   3.156219E+00   3.335120E+00   3.460731E+00   3.530574E+00   3.550526E+00   3.522254E+00   3.436688E+00   3.299438E+00   3.143771E+00   2.984302E+00   2.847572E+00   2.743642E+00   2.675341E+00   2.636088E+00   2.606196E+00   2.594925E+00   2.592458E+00   2.609612E+00   2.639697E+00   2.691651E+00   2.751085E+00   2.813267E+00   2.870893E+00   2.921512E+00   2.981101E+00   3.060643E+00   3.169456E+00   3.313503E+00   3.483050E+00   3.679548E+00   3.872139E+00   4.036731E+00   4.143424E+00   4.185898E+00   4.176813E+00   4.164048E+00   4.130564E+00   4.092708E+00   4.018496E+00   3.918074E+00   3.791917E+00   3.648687E+00   3.509596E+00   3.405226E+00   3.358482E+00   3.389082E+00   3.479941E+00   3.632381E+00   3.854142E+00   4.107802E+00   4.400772E+00   4.726968E+00   5.081447E+00   5.440053E+00   5.796692E+00   6.092214E+00   6.275009E+00   6.310739E+00   6.158673E+00   5.832996E+00   5.430679E+00   4.999481E+00   4.559683E+00   4.134119E+00   3.732695E+00   3.386062E+00   3.081276E+00   2.821647E+00   2.606698E+00   2.437293E+00   2.311326E+00   2.234184E+00   2.206314E+00   2.235574E+00   2.314919E+00   2.455878E+00   2.644057E+00   2.873436E+00   3.128041E+00   3.389234E+00   3.644457E+00   3.861137E+00   4.029852E+00   4.142504E+00   4.208796E+00   4.219719E+00   4.215409E+00   4.167290E+00   4.130489E+00   4.083138E+00   4.052784E+00   4.026811E+00   4.033830E+00   4.065406E+00   4.130228E+00   4.237735E+00   4.388772E+00   4.553504E+00   4.688364E+00   4.765165E+00   4.777207E+00   4.730192E+00   4.655463E+00   4.559774E+00   4.433038E+00   4.291848E+00   4.145249E+00
   3.979073E+00   3.955786E+00   3.915703E+00   3.845724E+00   3.786831E+00   3.701905E+00   3.640101E+00   3.585025E+00   3.538433E+00   3.469793E+00   3.374642E+00   3.260799E+00   3.137173E+00   3.032764E+00   2.943190E+00   2.871846E+00   2.819857E+00   2.791071E+00   2.820314E+00   2.883729E+00   2.984603E+00   3.110523E+00   3.237066E+00   3.391468E+00   3.556703E+00   3.739839E+00   3.941047E+00   4.130224E+00   4.330401E+00   4.528198E+00   4.721312E+00   4.875259E+00   4.992886E+00   5.066981E+00   5.073456E+00   4.979183E+00   4.777875E+00   4.474483E+00   4.122885E+00   3.772669E+00   3.475371E+00   3.218556E+00   3.015627E+00   2.854657E+00   2.731261E+00   2.650550E+00   2.602227E+00   2.606576E+00   2.659211E+00   2.754123E+00   2.902081E+00   3.083870E+00   3.264995E+00   3.425651E+00   3.535903E+00   3.600854E+00   3.640835E+00   3.670728E+00   3.741944E+00   3.855010E+00   4.003150E+00   4.173627E+00   4.335751E+00   4.434359E+00   4.437381E+00   4.350919E+00   4.188261E+00   3.979318E+00   3.748928E+00   3.519699E+00   3.295030E+00   3.103919E+00   2.943294E+00   2.832248E+00   2.759533E+00   2.730057E+00   2.735126E+00   2.771715E+00   2.823777E+00   2.866697E+00   2.880253E+00   2.862586E+00   2.808270E+00   2.741560E+00   2.650936E+00   2.550426E+00   2.459665E+00   2.393573E+00   2.381823E+00   2.432056E+00   2.542402E+00   2.698799E+00   2.900346E+00   3.110194E+00   3.316120E+00   3.494074E+00   3.620668E+00   3.673965E+00   3.670438E+00   3.599366E+00   3.483682E+00   3.343727E+00   3.200045E+00   3.071806E+00   2.981882E+00   2.926011E+00   2.895861E+00   2.879601E+00   2.874224E+00   2.873555E+00   2.885824E+00   2.914846E+00   2.965813E+00   3.022971E+00   3.066722E+00   3.108739E+00   3.122388E+00   3.139129E+00   3.170573E+00   3.221014E+00   3.308369E+00   3.420776E+00   3.553198E+00   3.682965E+00   3.774427E+00   3.814251E+00   3.802683E+00   3.771659E+00   3.744390E+00   3.737173E+00   3.736015E+00   3.736613E+00   3.699695E+00   3.620664E+00   3.521657E+00   3.398572E+00   3.292065E+00   3.229860E+00   3.249869E+00   3.343646E+00   3.512846E+00   3.753724E+00   4.030382E+00   4.332610E+00   4.645498E+00   4.978276E+00   5.325372E+00   5.670010E+00   5.977999E+00   6.189992E+00   6.239858E+00   6.110588E+00   5.835067E+00   5.473139E+00   5.047861E+00   4.617970E+00   4.185852E+00   3.798579E+00   3.451704E+00   3.153552E+00   2.899671E+00   2.673135E+00   2.492274E+00   2.357057E+00   2.272450E+00   2.236262E+00   2.257895E+00   2.327053E+00   2.455402E+00   2.631977E+00   2.854022E+00   3.111112E+00   3.385970E+00   3.643056E+00   3.848629E+00   3.999658E+00   4.091789E+00   4.131082E+00   4.141915E+00   4.115364E+00   4.073652E+00   4.031503E+00   3.994388E+00   3.959312E+00   3.948977E+00   3.954588E+00   4.000226E+00   4.075844E+00   4.202966E+00   4.372462E+00   4.537607E+00   4.676287E+00   4.759966E+00   4.769137E+00   4.728984E+00   4.656735E+00   4.567555E+00   4.447083E+00   4.311649E+00   4.159194E+00
   4.043724E+00   4.083836E+00   4.070999E+00   4.036810E+00   3.960453E+00   3.884692E+00   3.813313E+00   3.759291E+00   3.692931E+00   3.604124E+00   3.480180E+00   3.350358E+00   3.221589E+00   3.114403E+00   3.027973E+00   2.968812E+00   2.913943E+00   2.901229E+00   2.924617E+00   2.989299E+00   3.088356E+00   3.214558E+00   3.342139E+00   3.478688E+00   3.627235E+00   3.797335E+00   3.965608E+00   4.147513E+00   4.341529E+00   4.551381E+00   4.755790E+00   4.954017E+00   5.104373E+00   5.216650E+00   5.242833E+00   5.179067E+00   5.008015E+00   4.735257E+00   4.379556E+00   4.002853E+00   3.650867E+00   3.362968E+00   3.126054E+00   2.944573E+00   2.819276E+00   2.735659E+00   2.707052E+00   2.716961E+00   2.787570E+00   2.909423E+00   3.080929E+00   3.272891E+00   3.458709E+00   3.628929E+00   3.748486E+00   3.826622E+00   3.874746E+00   3.941306E+00   4.036295E+00   4.175768E+00   4.366757E+00   4.566076E+00   4.749045E+00   4.856018E+00   4.847500E+00   4.723869E+00   4.530021E+00   4.301064E+00   4.056560E+00   3.805185E+00   3.577367E+00   3.378105E+00   3.201213E+00   3.065083E+00   2.967473E+00   2.905237E+00   2.885594E+00   2.880179E+00   2.895816E+00   2.904491E+00   2.899597E+00   2.858758E+00   2.798210E+00   2.723759E+00   2.642542E+00   2.554757E+00   2.475361E+00   2.430283E+00   2.431052E+00   2.496643E+00   2.613315E+00   2.781767E+00   2.975712E+00   3.193218E+00   3.412102E+00   3.607999E+00   3.763335E+00   3.837923E+00   3.842813E+00   3.784600E+00   3.672546E+00   3.546724E+00   3.415827E+00   3.298666E+00   3.212484E+00   3.164731E+00   3.149089E+00   3.144011E+00   3.148413E+00   3.160422E+00   3.179477E+00   3.208168E+00   3.260821E+00   3.311530E+00   3.340934E+00   3.346211E+00   3.324754E+00   3.287921E+00   3.258226E+00   3.244779E+00   3.259457E+00   3.297604E+00   3.353957E+00   3.409650E+00   3.441893E+00   3.443889E+00   3.414907E+00   3.382073E+00   3.374995E+00   3.390281E+00   3.445037E+00   3.503036E+00   3.535911E+00   3.519467E+00   3.462358E+00   3.369978E+00   3.284781E+00   3.228198E+00   3.243277E+00   3.322735E+00   3.491200E+00   3.741822E+00   4.034437E+00   4.338806E+00   4.636431E+00   4.931716E+00   5.239814E+00   5.557024E+00   5.846823E+00   6.059761E+00   6.143466E+00   6.063251E+00   5.840503E+00   5.502178E+00   5.102995E+00   4.675775E+00   4.269993E+00   3.886287E+00   3.560269E+00   3.278111E+00   3.028327E+00   2.793597E+00   2.600806E+00   2.452247E+00   2.351921E+00   2.308919E+00   2.313920E+00   2.382373E+00   2.499599E+00   2.668936E+00   2.871930E+00   3.122760E+00   3.385142E+00   3.627423E+00   3.814820E+00   3.943707E+00   4.011467E+00   4.035078E+00   4.031038E+00   3.989281E+00   3.959805E+00   3.939916E+00   3.913789E+00   3.892176E+00   3.874698E+00   3.877466E+00   3.913208E+00   3.978403E+00   4.088097E+00   4.229208E+00   4.382004E+00   4.501371E+00   4.582155E+00   4.594871E+00   4.576569E+00   4.528265E+00   4.443352E+00   4.361258E+00   4.255405E+00   4.139395E+00
   4.117941E+00   4.210358E+00   4.262128E+00   4.249390E+00   4.207880E+00   4.124594E+00   4.064737E+00   3.997077E+00   3.909080E+00   3.779575E+00   3.618833E+00   3.459149E+00   3.315597E+00   3.197002E+00   3.116038E+00   3.068539E+00   3.036527E+00   3.024770E+00   3.037859E+00   3.091379E+00   3.170815E+00   3.276475E+00   3.403767E+00   3.532116E+00   3.672476E+00   3.816547E+00   3.980073E+00   4.159538E+00   4.383318E+00   4.596117E+00   4.813410E+00   5.005360E+00   5.180814E+00   5.288487E+00   5.334933E+00   5.284101E+00   5.154984E+00   4.923829E+00   4.610386E+00   4.238227E+00   3.876525E+00   3.553397E+00   3.294392E+00   3.100584E+00   2.959400E+00   2.876992E+00   2.846853E+00   2.876762E+00   2.957936E+00   3.078631E+00   3.238655E+00   3.414196E+00   3.595906E+00   3.736809E+00   3.843060E+00   3.910194E+00   3.973505E+00   4.058115E+00   4.187527E+00   4.376304E+00   4.611717E+00   4.859009E+00   5.051302E+00   5.164666E+00   5.161913E+00   5.044087E+00   4.842757E+00   4.610108E+00   4.365701E+00   4.127278E+00   3.916351E+00   3.719624E+00   3.534355E+00   3.381422E+00   3.237746E+00   3.137499E+00   3.067480E+00   3.019516E+00   2.986003E+00   2.955171E+00   2.920398E+00   2.866844E+00   2.804230E+00   2.741815E+00   2.669070E+00   2.616398E+00   2.575747E+00   2.565631E+00   2.601035E+00   2.681638E+00   2.828748E+00   3.010607E+00   3.223022E+00   3.450050E+00   3.653616E+00   3.813053E+00   3.943182E+00   4.020528E+00   4.009125E+00   3.952341E+00   3.841619E+00   3.726348E+00   3.610122E+00   3.506430E+00   3.425929E+00   3.373575E+00   3.343147E+00   3.344385E+00   3.354962E+00   3.380617E+00   3.414174E+00   3.450279E+00   3.493096E+00   3.513807E+00   3.511776E+00   3.486523E+00   3.433091E+00   3.358498E+00   3.270242E+00   3.189715E+00   3.132392E+00   3.099911E+00   3.090876E+00   3.085813E+00   3.076944E+00   3.063994E+00   3.045858E+00   3.046263E+00   3.069660E+00   3.128961E+00   3.219818E+00   3.329886E+00   3.413485E+00   3.461017E+00   3.454346E+00   3.416160E+00   3.354970E+00   3.320058E+00   3.334202E+00   3.425402E+00   3.583767E+00   3.818418E+00   4.091280E+00   4.376379E+00   4.642819E+00   4.915099E+00   5.189076E+00   5.481742E+00   5.739174E+00   5.936843E+00   6.020940E+00   5.969345E+00   5.783409E+00   5.506813E+00   5.158514E+00   4.774071E+00   4.398797E+00   4.037161E+00   3.707791E+00   3.425155E+00   3.169120E+00   2.936074E+00   2.729353E+00   2.576511E+00   2.472564E+00   2.422787E+00   2.430583E+00   2.485288E+00   2.601779E+00   2.752010E+00   2.948910E+00   3.173015E+00   3.409223E+00   3.627005E+00   3.804131E+00   3.901112E+00   3.955195E+00   3.968340E+00   3.952850E+00   3.917081E+00   3.892238E+00   3.871827E+00   3.861263E+00   3.835192E+00   3.817028E+00   3.801570E+00   3.815089E+00   3.856776E+00   3.933580E+00   4.037617E+00   4.145275E+00   4.244181E+00   4.295821E+00   4.321256E+00   4.321363E+00   4.298779E+00   4.258817E+00   4.217598E+00   4.165681E+00   4.084952E+00