# LPF package for  MODFLOW-2005, generated by Flopy.
         0    -1E+30         0  
         0
         0
   1.000000E+00
         0
         0
INTERNAL               1 (200E15.6) -1 #hk layer 1                    
   3.962788E+00   3.935256E+00   3.904595E+00   3.862568E+00   3.833811E+00   3.813375E+00   3.802010E+00   3.789259E+00   3.787638E+00   3.761372E+00   3.731937E+00   3.688905E+00   3.641668E+00   3.585251E+00   3.527647E+00   3.488740E+00   3.471232E+00   3.475556E+00   3.487827E+00   3.514943E+00   3.555471E+00   3.610214E+00   3.676259E+00   3.769783E+00   3.856483E+00   3.942676E+00   4.024052E+00   4.102633E+00   4.173385E+00   4.228883E+00   4.263467E+00   4.278135E+00   4.262437E+00   4.208702E+00   4.144068E+00   4.060987E+00   3.983612E+00   3.902465E+00   3.837316E+00   3.780430E+00   3.734403E+00   3.705074E+00   3.677715E+00   3.641522E+00   3.612206E+00   3.596276E+00   3.597910E+00   3.596472E+00   3.597082E+00   3.587705E+00   3.565914E+00   3.538508E+00   3.502650E+00   3.460974E+00   3.425241E+00   3.380499E+00   3.348185E+00   3.330749E+00   3.342711E+00   3.384887E+00   3.437982E+00   3.508730E+00   3.589049E+00   3.667581E+00   3.724926E+00   3.774178E+00   3.803749E+00   3.823974E+00   3.825920E+00   3.805981E+00   3.768559E+00   3.724180E+00   3.683818E+00   3.658773E+00   3.654683E+00   3.647126E+00   3.655399E+00   3.651714E+00   3.644531E+00   3.635122E+00   3.635728E+00   3.623712E+00   3.611370E+00   3.599413E+00   3.583010E+00   3.572149E+00   3.569918E+00   3.582234E+00   3.598199E+00   3.649003E+00   3.714886E+00   3.790905E+00   3.863296E+00   3.918352E+00   3.938094E+00   3.934328E+00   3.911841E+00   3.868221E+00   3.820258E+00   3.755308E+00   3.688874E+00   3.614429E+00   3.538882E+00   3.483582E+00   3.436854E+00   3.398666E+00   3.375499E+00   3.354403E+00   3.352455E+00   3.340924E+00   3.328642E+00   3.308937E+00   3.299340E+00   3.305012E+00   3.313846E+00   3.343992E+00   3.403392E+00   3.481896E+00   3.577409E+00   3.681885E+00   3.773120E+00   3.873360E+00   3.962980E+00   4.047283E+00   4.126981E+00   4.192473E+00   4.268063E+00   4.325011E+00   4.356613E+00   4.372876E+00   4.360039E+00   4.335385E+00   4.308176E+00   4.267400E+00   4.212790E+00   4.168877E+00   4.110874E+00   4.072148E+00   4.050262E+00   4.051406E+00   4.074113E+00   4.106688E+00   4.158680E+00   4.213202E+00   4.279406E+00   4.348999E+00   4.431291E+00   4.525101E+00   4.590654E+00   4.616911E+00   4.595846E+00   4.545367E+00   4.457916E+00   4.370996E+00   4.269327E+00   4.164094E+00   4.064128E+00   3.962220E+00   3.866618E+00   3.760832E+00   3.673642E+00   3.573136E+00   3.493876E+00   3.440049E+00   3.401903E+00   3.385119E+00   3.389158E+00   3.415224E+00   3.461413E+00   3.544920E+00   3.647778E+00   3.756881E+00   3.870649E+00   3.969676E+00   4.043571E+00   4.094847E+00   4.129454E+00   4.160869E+00   4.187379E+00   4.202433E+00   4.222253E+00   4.238347E+00   4.251740E+00   4.250443E+00   4.238961E+00   4.202266E+00   4.153181E+00   4.090038E+00   4.032176E+00   3.993755E+00   3.975695E+00   3.977532E+00   3.985448E+00   4.000470E+00   4.005295E+00   4.010329E+00   4.009992E+00   3.991212E+00   3.983191E+00   3.979285E+00
   3.931080E+00   3.887707E+00   3.829748E+00   3.762536E+00   3.694451E+00   3.655397E+00   3.623380E+00   3.599590E+00   3.585314E+00   3.568898E+00   3.518025E+00   3.458787E+00   3.366124E+00   3.277500E+00   3.188920E+00   3.124232E+00   3.088022E+00   3.089385E+00   3.108827E+00   3.145913E+00   3.206923E+00   3.294820E+00   3.408903E+00   3.546222E+00   3.701372E+00   3.869493E+00   4.044295E+00   4.212993E+00   4.363950E+00   4.476863E+00   4.542768E+00   4.578508E+00   4.539409E+00   4.449935E+00   4.313797E+00   4.166905E+00   4.016884E+00   3.866450E+00   3.721262E+00   3.617279E+00   3.532145E+00   3.477660E+00   3.426715E+00   3.378249E+00   3.327017E+00   3.299497E+00   3.291501E+00   3.285619E+00   3.282934E+00   3.269547E+00   3.242012E+00   3.198165E+00   3.151995E+00   3.091669E+00   3.019271E+00   2.953086E+00   2.904815E+00   2.881457E+00   2.896983E+00   2.955986E+00   3.048428E+00   3.177575E+00   3.316573E+00   3.439484E+00   3.540976E+00   3.620275E+00   3.659821E+00   3.670877E+00   3.654481E+00   3.607708E+00   3.536734E+00   3.462976E+00   3.394768E+00   3.346543E+00   3.318186E+00   3.305677E+00   3.306715E+00   3.317224E+00   3.330720E+00   3.344636E+00   3.346157E+00   3.339650E+00   3.320265E+00   3.291522E+00   3.255503E+00   3.224059E+00   3.214216E+00   3.223188E+00   3.256880E+00   3.326697E+00   3.449544E+00   3.571603E+00   3.708102E+00   3.808217E+00   3.860963E+00   3.866009E+00   3.817617E+00   3.748319E+00   3.659075E+00   3.553328E+00   3.436319E+00   3.309480E+00   3.182950E+00   3.082190E+00   3.002885E+00   2.939697E+00   2.899170E+00   2.875732E+00   2.858000E+00   2.842762E+00   2.823245E+00   2.810618E+00   2.814601E+00   2.824085E+00   2.855816E+00   2.913290E+00   2.996994E+00   3.108398E+00   3.251744E+00   3.408220E+00   3.570974E+00   3.748520E+00   3.919931E+00   4.086868E+00   4.236215E+00   4.381655E+00   4.511510E+00   4.607912E+00   4.648467E+00   4.658898E+00   4.638907E+00   4.593389E+00   4.518851E+00   4.415385E+00   4.309289E+00   4.212234E+00   4.139822E+00   4.086422E+00   4.073499E+00   4.088355E+00   4.138729E+00   4.222582E+00   4.297256E+00   4.406872E+00   4.525865E+00   4.681046E+00   4.854746E+00   5.038086E+00   5.182836E+00   5.230637E+00   5.195656E+00   5.072864E+00   4.905392E+00   4.710602E+00   4.497553E+00   4.284815E+00   4.077373E+00   3.883696E+00   3.689611E+00   3.513256E+00   3.339213E+00   3.195019E+00   3.067132E+00   2.986235E+00   2.935783E+00   2.910938E+00   2.919173E+00   2.971716E+00   3.068389E+00   3.208067E+00   3.374070E+00   3.558310E+00   3.746649E+00   3.909815E+00   4.045788E+00   4.142433E+00   4.213429E+00   4.270825E+00   4.313185E+00   4.348045E+00   4.379317E+00   4.414686E+00   4.425013E+00   4.420235E+00   4.382110E+00   4.328815E+00   4.247930E+00   4.153230E+00   4.068637E+00   4.005184E+00   4.004289E+00   4.019166E+00   4.045165E+00   4.059863E+00   4.058239E+00   4.054976E+00   4.036988E+00   4.011821E+00   3.986729E+00   3.982318E+00
   3.911418E+00   3.831453E+00   3.749031E+00   3.665209E+00   3.598254E+00   3.527300E+00   3.481818E+00   3.447894E+00   3.426061E+00   3.389528E+00   3.341980E+00   3.261281E+00   3.174336E+00   3.070292E+00   2.974375E+00   2.897067E+00   2.853102E+00   2.845817E+00   2.866083E+00   2.912390E+00   2.976406E+00   3.079129E+00   3.215752E+00   3.387567E+00   3.577035E+00   3.793390E+00   4.038014E+00   4.276630E+00   4.495471E+00   4.657485E+00   4.768302E+00   4.801392E+00   4.762746E+00   4.652589E+00   4.500477E+00   4.292882E+00   4.082277E+00   3.863163E+00   3.680011E+00   3.528653E+00   3.416041E+00   3.325339E+00   3.259160E+00   3.194539E+00   3.126958E+00   3.063709E+00   3.039079E+00   3.014021E+00   3.012054E+00   3.011003E+00   3.004444E+00   2.979255E+00   2.953155E+00   2.897845E+00   2.834759E+00   2.772694E+00   2.717899E+00   2.691939E+00   2.709803E+00   2.779211E+00   2.893706E+00   3.038568E+00   3.196877E+00   3.347696E+00   3.465124E+00   3.536550E+00   3.565449E+00   3.554733E+00   3.505311E+00   3.429573E+00   3.323630E+00   3.222530E+00   3.129646E+00   3.062921E+00   3.020982E+00   3.000721E+00   3.008638E+00   3.033445E+00   3.074582E+00   3.111098E+00   3.131058E+00   3.131455E+00   3.116630E+00   3.074152E+00   3.034314E+00   2.993298E+00   2.964957E+00   2.957736E+00   2.984546E+00   3.066780E+00   3.196376E+00   3.362216E+00   3.523934E+00   3.667975E+00   3.738926E+00   3.748604E+00   3.707922E+00   3.629920E+00   3.533957E+00   3.403640E+00   3.256056E+00   3.102090E+00   2.953326E+00   2.817521E+00   2.714653E+00   2.634060E+00   2.576942E+00   2.543889E+00   2.526100E+00   2.512481E+00   2.502546E+00   2.501317E+00   2.520624E+00   2.552521E+00   2.595366E+00   2.671947E+00   2.769091E+00   2.892436E+00   3.055953E+00   3.236865E+00   3.429727E+00   3.652714E+00   3.877876E+00   4.097632E+00   4.299212E+00   4.472055E+00   4.632917E+00   4.738279E+00   4.800196E+00   4.799170E+00   4.754508E+00   4.666303E+00   4.541191E+00   4.402722E+00   4.262094E+00   4.144639E+00   4.046690E+00   4.001776E+00   3.997408E+00   4.042600E+00   4.127794E+00   4.226735E+00   4.359228E+00   4.514888E+00   4.710755E+00   4.934602E+00   5.204893E+00   5.455306E+00   5.643396E+00   5.717421E+00   5.675404E+00   5.512872E+00   5.265910E+00   4.981523E+00   4.677632E+00   4.377891E+00   4.084722E+00   3.801093E+00   3.529062E+00   3.281294E+00   3.065568E+00   2.875398E+00   2.743139E+00   2.652063E+00   2.600256E+00   2.586719E+00   2.616782E+00   2.692761E+00   2.816070E+00   2.983833E+00   3.191599E+00   3.408238E+00   3.631832E+00   3.835967E+00   4.016186E+00   4.145992E+00   4.243612E+00   4.309405E+00   4.361438E+00   4.400011E+00   4.423017E+00   4.430517E+00   4.437450E+00   4.415704E+00   4.374258E+00   4.306623E+00   4.231934E+00   4.167661E+00   4.107936E+00   4.083588E+00   4.095946E+00   4.140894E+00   4.191665E+00   4.206615E+00   4.196539E+00   4.158311E+00   4.116696E+00   4.076100E+00   4.039288E+00   4.009629E+00
   3.896340E+00   3.807973E+00   3.706516E+00   3.616932E+00   3.543819E+00   3.483051E+00   3.426009E+00   3.385866E+00   3.348067E+00   3.304496E+00   3.237225E+00   3.161668E+00   3.060054E+00   2.958312E+00   2.860772E+00   2.787938E+00   2.737829E+00   2.721956E+00   2.738765E+00   2.785486E+00   2.846964E+00   2.944214E+00   3.081256E+00   3.263889E+00   3.476446E+00   3.718294E+00   3.983713E+00   4.265014E+00   4.516830E+00   4.716646E+00   4.850655E+00   4.915973E+00   4.877947E+00   4.797005E+00   4.627310E+00   4.407738E+00   4.159503E+00   3.904401E+00   3.671250E+00   3.492177E+00   3.347669E+00   3.228932E+00   3.124589E+00   3.028308E+00   2.943727E+00   2.873027E+00   2.827107E+00   2.791376E+00   2.786549E+00   2.800051E+00   2.824895E+00   2.847887E+00   2.864170E+00   2.863414E+00   2.830153E+00   2.784796E+00   2.741578E+00   2.726053E+00   2.748808E+00   2.821474E+00   2.941082E+00   3.095412E+00   3.255990E+00   3.401190E+00   3.504246E+00   3.550847E+00   3.540672E+00   3.482801E+00   3.396589E+00   3.283336E+00   3.157631E+00   3.024631E+00   2.914273E+00   2.824793E+00   2.781167E+00   2.772004E+00   2.795218E+00   2.835716E+00   2.895522E+00   2.947383E+00   2.992084E+00   3.008102E+00   2.995852E+00   2.955140E+00   2.894190E+00   2.836989E+00   2.786753E+00   2.764346E+00   2.783939E+00   2.851892E+00   2.984857E+00   3.145485E+00   3.331597E+00   3.492080E+00   3.600976E+00   3.640581E+00   3.616640E+00   3.548795E+00   3.453865E+00   3.323828E+00   3.169318E+00   2.995993E+00   2.833061E+00   2.695071E+00   2.574296E+00   2.488216E+00   2.434324E+00   2.393897E+00   2.381281E+00   2.367240E+00   2.370829E+00   2.385367E+00   2.416066E+00   2.466287E+00   2.530063E+00   2.616311E+00   2.714455E+00   2.835564E+00   2.981884E+00   3.154928E+00   3.350119E+00   3.571186E+00   3.813200E+00   4.058923E+00   4.280423E+00   4.463894E+00   4.608486E+00   4.703671E+00   4.741158E+00   4.728532E+00   4.661771E+00   4.551202E+00   4.399705E+00   4.235808E+00   4.082099E+00   3.944390E+00   3.856222E+00   3.807069E+00   3.816047E+00   3.887380E+00   4.004872E+00   4.149694E+00   4.328875E+00   4.553272E+00   4.811103E+00   5.114275E+00   5.422101E+00   5.737250E+00   5.978858E+00   6.084962E+00   6.044124E+00   5.856079E+00   5.551449E+00   5.188809E+00   4.810559E+00   4.452203E+00   4.092883E+00   3.748792E+00   3.425229E+00   3.138642E+00   2.889468E+00   2.700728E+00   2.550847E+00   2.445295E+00   2.391689E+00   2.380439E+00   2.412941E+00   2.497714E+00   2.634197E+00   2.831331E+00   3.050078E+00   3.292037E+00   3.532022E+00   3.766614E+00   3.958182E+00   4.113244E+00   4.209465E+00   4.281703E+00   4.319288E+00   4.339456E+00   4.337452E+00   4.334977E+00   4.303074E+00   4.280967E+00   4.231541E+00   4.189559E+00   4.155365E+00   4.129895E+00   4.138973E+00   4.185471E+00   4.259124E+00   4.341222E+00   4.394312E+00   4.415906E+00   4.386331E+00   4.323545E+00   4.237204E+00   4.156170E+00   4.092058E+00   4.036576E+00
   3.901705E+00   3.809727E+00   3.712903E+00   3.630028E+00   3.558282E+00   3.492685E+00   3.437736E+00   3.386244E+00   3.349687E+00   3.288378E+00   3.216042E+00   3.121270E+00   3.023184E+00   2.922441E+00   2.831129E+00   2.753011E+00   2.701642E+00   2.678718E+00   2.699814E+00   2.742628E+00   2.817749E+00   2.926661E+00   3.056402E+00   3.230430E+00   3.438531E+00   3.675636E+00   3.932769E+00   4.187825E+00   4.435498E+00   4.642040E+00   4.792405E+00   4.872485E+00   4.908807E+00   4.864631E+00   4.746661E+00   4.554013E+00   4.323848E+00   4.030179E+00   3.759057E+00   3.508705E+00   3.314096E+00   3.156692E+00   3.022779E+00   2.903872E+00   2.799840E+00   2.721570E+00   2.671369E+00   2.639247E+00   2.636856E+00   2.670493E+00   2.738876E+00   2.823095E+00   2.910199E+00   2.960696E+00   2.976243E+00   2.960353E+00   2.945501E+00   2.944825E+00   2.982848E+00   3.057451E+00   3.184210E+00   3.341106E+00   3.498356E+00   3.626695E+00   3.702512E+00   3.704708E+00   3.642733E+00   3.534326E+00   3.393514E+00   3.237120E+00   3.073554E+00   2.923587E+00   2.787888E+00   2.690804E+00   2.641288E+00   2.635834E+00   2.664901E+00   2.728997E+00   2.799713E+00   2.865935E+00   2.917920E+00   2.931121E+00   2.905995E+00   2.851578E+00   2.781708E+00   2.704976E+00   2.636711E+00   2.599304E+00   2.599241E+00   2.653880E+00   2.769804E+00   2.935799E+00   3.119300E+00   3.298787E+00   3.442280E+00   3.518346E+00   3.534307E+00   3.508705E+00   3.444813E+00   3.340865E+00   3.192851E+00   3.013208E+00   2.849631E+00   2.706928E+00   2.596481E+00   2.519102E+00   2.464647E+00   2.428648E+00   2.404954E+00   2.407155E+00   2.422488E+00   2.448817E+00   2.486914E+00   2.553470E+00   2.621966E+00   2.698300E+00   2.789834E+00   2.883233E+00   3.000550E+00   3.141121E+00   3.319908E+00   3.524060E+00   3.753573E+00   3.991638E+00   4.187849E+00   4.355461E+00   4.461189E+00   4.499476E+00   4.505322E+00   4.484680E+00   4.418677E+00   4.309420E+00   4.154348E+00   4.001447E+00   3.840246E+00   3.701638E+00   3.600868E+00   3.565558E+00   3.584696E+00   3.674332E+00   3.811295E+00   4.003875E+00   4.232725E+00   4.505395E+00   4.816792E+00   5.151762E+00   5.489583E+00   5.837202E+00   6.113373E+00   6.268900E+00   6.251398E+00   6.082055E+00   5.759303E+00   5.355590E+00   4.928097E+00   4.504907E+00   4.099226E+00   3.720555E+00   3.368801E+00   3.066521E+00   2.811286E+00   2.601249E+00   2.445673E+00   2.332525E+00   2.270850E+00   2.255070E+00   2.288430E+00   2.376396E+00   2.523510E+00   2.715542E+00   2.944988E+00   3.190950E+00   3.443341E+00   3.689028E+00   3.913377E+00   4.079929E+00   4.192730E+00   4.246583E+00   4.279346E+00   4.268319E+00   4.247807E+00   4.206591E+00   4.172616E+00   4.135201E+00   4.108056E+00   4.081359E+00   4.088653E+00   4.122961E+00   4.193855E+00   4.301348E+00   4.424075E+00   4.541582E+00   4.623413E+00   4.634236E+00   4.598229E+00   4.522820E+00   4.414732E+00   4.300322E+00   4.189211E+00   4.089355E+00
   3.927639E+00   3.860357E+00   3.788238E+00   3.722696E+00   3.643108E+00   3.574366E+00   3.506399E+00   3.459329E+00   3.411772E+00   3.346884E+00   3.262238E+00   3.163571E+00   3.052395E+00   2.955789E+00   2.864527E+00   2.791121E+00   2.733134E+00   2.716115E+00   2.734644E+00   2.797954E+00   2.881733E+00   2.997791E+00   3.128076E+00   3.293174E+00   3.480557E+00   3.681383E+00   3.901633E+00   4.138272E+00   4.358592E+00   4.559403E+00   4.716318E+00   4.837306E+00   4.929014E+00   4.954622E+00   4.886641E+00   4.749219E+00   4.529057E+00   4.227006E+00   3.908289E+00   3.604283E+00   3.351111E+00   3.144738E+00   2.970975E+00   2.837238E+00   2.728472E+00   2.642964E+00   2.593988E+00   2.572753E+00   2.599947E+00   2.667192E+00   2.776318E+00   2.913575E+00   3.051713E+00   3.166119E+00   3.228111E+00   3.263905E+00   3.281206E+00   3.301107E+00   3.350884E+00   3.445524E+00   3.576370E+00   3.732060E+00   3.894028E+00   4.002238E+00   4.042159E+00   3.994920E+00   3.872236E+00   3.710489E+00   3.517377E+00   3.312810E+00   3.124850E+00   2.945929E+00   2.802881E+00   2.694047E+00   2.638530E+00   2.633789E+00   2.659163E+00   2.716366E+00   2.789541E+00   2.847194E+00   2.889394E+00   2.890158E+00   2.852639E+00   2.789795E+00   2.706626E+00   2.613795E+00   2.526695E+00   2.465473E+00   2.452453E+00   2.497995E+00   2.601867E+00   2.760957E+00   2.955985E+00   3.156411E+00   3.335283E+00   3.460871E+00   3.530707E+00   3.550674E+00   3.522443E+00   3.436935E+00   3.299750E+00   3.144140E+00   2.984708E+00   2.847988E+00   2.744043E+00   2.675698E+00   2.636384E+00   2.606420E+00   2.595077E+00   2.592543E+00   2.609642E+00   2.639685E+00   2.691610E+00   2.751023E+00   2.813196E+00   2.870826E+00   2.921462E+00   2.981074E+00   3.060636E+00   3.169457E+00   3.313492E+00   3.482999E+00   3.679433E+00   3.871931E+00   4.036412E+00   4.142982E+00   4.185327E+00   4.176121E+00   4.163245E+00   4.129679E+00   4.091772E+00   4.017551E+00   3.917160E+00   3.791063E+00   3.647908E+00   3.508895E+00   3.404597E+00   3.357920E+00   3.388578E+00   3.479503E+00   3.632018E+00   3.853868E+00   4.107627E+00   4.400698E+00   4.726988E+00   5.081541E+00   5.440172E+00   5.796784E+00   6.092227E+00   6.274902E+00   6.310481E+00   6.158261E+00   5.832459E+00   5.430051E+00   4.998806E+00   4.559005E+00   4.133488E+00   3.732156E+00   3.385647E+00   3.081002E+00   2.821515E+00   2.606697E+00   2.437401E+00   2.311516E+00   2.234430E+00   2.206588E+00   2.235853E+00   2.315180E+00   2.456102E+00   2.644225E+00   2.873536E+00   3.128068E+00   3.389200E+00   3.644391E+00   3.861082E+00   4.029851E+00   4.142597E+00   4.209009E+00   4.220055E+00   4.215856E+00   4.167826E+00   4.131088E+00   4.083758E+00   4.053384E+00   4.027356E+00   4.034295E+00   4.065773E+00   4.130478E+00   4.237846E+00   4.388721E+00   4.553277E+00   4.687971E+00   4.764644E+00   4.776608E+00   4.729570E+00   4.654875E+00   4.559262E+00   4.432637E+00   4.291574E+00   4.145113E+00
   3.979082E+00   3.955784E+00   3.915648E+00   3.845576E+00   3.786557E+00   3.701494E+00   3.639551E+00   3.584351E+00   3.537656E+00   3.468946E+00   3.373757E+00   3.259907E+00   3.136299E+00   3.031925E+00   2.942400E+00   2.871120E+00   2.819210E+00   2.790522E+00   2.819878E+00   2.883427E+00   2.984455E+00   3.110538E+00   3.237243E+00   3.391792E+00   3.557150E+00   3.740389E+00   3.941689E+00   4.130952E+00   4.331215E+00   4.529095E+00   4.722282E+00   4.876282E+00   4.993941E+00   5.068058E+00   5.074541E+00   4.980276E+00   4.778966E+00   4.475563E+00   4.123938E+00   3.773682E+00   3.476331E+00   3.219440E+00   3.016409E+00   2.855311E+00   2.731765E+00   2.650885E+00   2.602387E+00   2.606564E+00   2.659037E+00   2.753804E+00   2.901641E+00   3.083338E+00   3.264410E+00   3.425052E+00   3.535331E+00   3.600344E+00   3.640400E+00   3.670372E+00   3.741650E+00   3.854761E+00   4.002925E+00   4.173409E+00   4.335532E+00   4.434147E+00   4.437193E+00   4.350785E+00   4.188208E+00   3.979357E+00   3.749055E+00   3.519896E+00   3.295275E+00   3.104187E+00   2.943561E+00   2.832488E+00   2.759721E+00   2.730178E+00   2.735171E+00   2.771685E+00   2.823684E+00   2.866559E+00   2.880105E+00   2.862460E+00   2.808199E+00   2.741562E+00   2.651014E+00   2.550574E+00   2.459864E+00   2.393804E+00   2.382067E+00   2.432296E+00   2.542621E+00   2.698981E+00   2.900482E+00   3.110282E+00   3.316166E+00   3.494095E+00   3.620690E+00   3.674017E+00   3.670542E+00   3.599540E+00   3.483927E+00   3.344030E+00   3.200387E+00   3.072157E+00   2.982207E+00   2.926281E+00   2.896058E+00   2.879712E+00   2.874251E+00   2.873509E+00   2.885723E+00   2.914711E+00   2.965659E+00   3.022817E+00   3.066590E+00   3.108645E+00   3.122348E+00   3.139144E+00   3.170638E+00   3.221119E+00   3.308497E+00   3.420902E+00   3.553299E+00   3.683013E+00   3.774402E+00   3.814131E+00   3.802456E+00   3.771324E+00   3.743944E+00   3.736627E+00   3.735392E+00   3.735938E+00   3.698999E+00   3.619979E+00   3.520998E+00   3.397955E+00   3.291490E+00   3.229322E+00   3.249363E+00   3.343171E+00   3.512417E+00   3.753355E+00   4.030097E+00   4.332426E+00   4.645416E+00   4.978277E+00   5.325422E+00   5.670057E+00   5.978007E+00   6.189923E+00   6.239694E+00   6.110328E+00   5.834727E+00   5.472735E+00   5.047418E+00   4.617522E+00   4.185436E+00   3.798236E+00   3.451474E+00   3.153451E+00   2.899704E+00   2.673288E+00   2.492521E+00   2.357367E+00   2.272796E+00   2.236621E+00   2.258245E+00   2.327378E+00   2.455686E+00   2.632202E+00   2.854175E+00   3.111195E+00   3.385988E+00   3.643039E+00   3.848627E+00   3.999723E+00   4.091967E+00   4.131399E+00   4.142379E+00   4.115962E+00   4.074361E+00   4.032287E+00   3.995209E+00   3.960122E+00   3.949736E+00   3.955260E+00   4.000789E+00   4.076264E+00   4.203215E+00   4.372509E+00   4.537435E+00   4.675904E+00   4.759420E+00   4.768495E+00   4.728320E+00   4.656105E+00   4.567010E+00   4.446659E+00   4.311363E+00   4.159051E+00
   4.043736E+00   4.083833E+00   4.070939E+00   4.036646E+00   3.960153E+00   3.884235E+00   3.812694E+00   3.758519E+00   3.692033E+00   3.603133E+00   3.479135E+00   3.349291E+00   3.220531E+00   3.113377E+00   3.027005E+00   2.967916E+00   2.913144E+00   2.900539E+00   2.924053E+00   2.988878E+00   3.088093E+00   3.214463E+00   3.342211E+00   3.478911E+00   3.627589E+00   3.797800E+00   3.966171E+00   4.148172E+00   4.342295E+00   4.552255E+00   4.756762E+00   4.955069E+00   5.105485E+00   5.217805E+00   5.244017E+00   5.180270E+00   5.009238E+00   4.736489E+00   4.380776E+00   4.004036E+00   3.651990E+00   3.364009E+00   3.126990E+00   2.945378E+00   2.819929E+00   2.736140E+00   2.707351E+00   2.717076E+00   2.787510E+00   2.909205E+00   3.080574E+00   3.272438E+00   3.458197E+00   3.628405E+00   3.747992E+00   3.826188E+00   3.874388E+00   3.941013E+00   4.036050E+00   4.175544E+00   4.366532E+00   4.565827E+00   4.748766E+00   4.855717E+00   4.847210E+00   4.723624E+00   4.529861E+00   4.301008E+00   4.056609E+00   3.805327E+00   3.577580E+00   3.378366E+00   3.201494E+00   3.065359E+00   2.967715E+00   2.905428E+00   2.885727E+00   2.880255E+00   2.895848E+00   2.904500E+00   2.899611E+00   2.858803E+00   2.798307E+00   2.723912E+00   2.642747E+00   2.555002E+00   2.475628E+00   2.430555E+00   2.431313E+00   2.496876E+00   2.613502E+00   2.781890E+00   2.975761E+00   3.193197E+00   3.412024E+00   3.607889E+00   3.763228E+00   3.837851E+00   3.842802E+00   3.784659E+00   3.672678E+00   3.546909E+00   3.416043E+00   3.298882E+00   3.212665E+00   3.164849E+00   3.149124E+00   3.143960E+00   3.148281E+00   3.160225E+00   3.179239E+00   3.207912E+00   3.260570E+00   3.311309E+00   3.340770E+00   3.346126E+00   3.324762E+00   3.288022E+00   3.258408E+00   3.245028E+00   3.259752E+00   3.297926E+00   3.354283E+00   3.409950E+00   3.442144E+00   3.444066E+00   3.414993E+00   3.382051E+00   3.374861E+00   3.390033E+00   3.444682E+00   3.502584E+00   3.535384E+00   3.518890E+00   3.461759E+00   3.369374E+00   3.284184E+00   3.227612E+00   3.242698E+00   3.322168E+00   3.490651E+00   3.741310E+00   4.033989E+00   4.338450E+00   4.636181E+00   4.931563E+00   5.239724E+00   5.556959E+00   5.846749E+00   6.059659E+00   6.143333E+00   6.063083E+00   5.840302E+00   5.501950E+00   5.102750E+00   4.675530E+00   4.269774E+00   3.886131E+00   3.560211E+00   3.278173E+00   3.028511E+00   2.793888E+00   2.601174E+00   2.452658E+00   2.352348E+00   2.309341E+00   2.314319E+00   2.382736E+00   2.499911E+00   2.669182E+00   2.872099E+00   3.122847E+00   3.385163E+00   3.627405E+00   3.814815E+00   3.943773E+00   4.011655E+00   4.035419E+00   4.031547E+00   3.989947E+00   3.960607E+00   3.940828E+00   3.914765E+00   3.893171E+00   3.875660E+00   3.878350E+00   3.913971E+00   3.979005E+00   4.088502E+00   4.229389E+00   4.381947E+00   4.501087E+00   4.581691E+00   4.594297E+00   4.575958E+00   4.527675E+00   4.442837E+00   4.360848E+00   4.255125E+00   4.139256E+00
   4.117950E+00   4.210350E+00   4.262059E+00   4.249213E+00   4.207552E+00   4.124100E+00   4.064063E+00   3.996230E+00   3.908082E+00   3.778466E+00   3.617657E+00   3.457944E+00   3.314395E+00   3.195835E+00   3.114928E+00   3.067504E+00   3.035591E+00   3.023950E+00   3.037170E+00   3.090834E+00   3.170427E+00   3.276253E+00   3.403710E+00   3.532209E+00   3.672699E+00   3.816879E+00   3.980509E+00   4.160080E+00   4.383984E+00   4.596908E+00   4.814314E+00   5.006360E+00   5.181889E+00   5.289624E+00   5.336119E+00   5.285340E+00   5.156272E+00   4.925158E+00   4.611732E+00   4.239554E+00   3.877798E+00   3.554588E+00   3.295475E+00   3.101535E+00   2.960198E+00   2.877617E+00   2.847294E+00   2.877014E+00   2.958006E+00   3.078539E+00   3.238428E+00   3.413873E+00   3.595537E+00   3.736439E+00   3.842730E+00   3.909927E+00   3.973307E+00   4.057974E+00   4.187419E+00   4.376198E+00   4.611584E+00   4.858824E+00   5.051056E+00   5.164364E+00   5.161589E+00   5.043783E+00   4.842515E+00   4.609957E+00   4.365653E+00   4.127329E+00   3.916487E+00   3.719829E+00   3.534604E+00   3.381684E+00   3.237996E+00   3.137723E+00   3.067672E+00   3.019674E+00   2.986138E+00   2.955302E+00   2.920549E+00   2.867033E+00   2.804464E+00   2.742093E+00   2.669382E+00   2.616724E+00   2.576069E+00   2.565935E+00   2.601305E+00   2.681856E+00   2.828898E+00   3.010668E+00   3.222986E+00   3.449923E+00   3.653415E+00   3.812814E+00   3.942948E+00   4.020329E+00   4.008986E+00   3.952274E+00   3.841618E+00   3.726394E+00   3.610190E+00   3.506488E+00   3.425945E+00   3.373524E+00   3.343015E+00   3.344175E+00   3.354687E+00   3.380298E+00   3.413839E+00   3.449955E+00   3.492811E+00   3.513590E+00   3.511655E+00   3.486516E+00   3.433205E+00   3.358723E+00   3.270562E+00   3.190107E+00   3.132836E+00   3.100388E+00   3.091366E+00   3.086287E+00   3.077378E+00   3.064367E+00   3.046149E+00   3.046457E+00   3.069743E+00   3.128920E+00   3.219650E+00   3.329585E+00   3.413060E+00   3.460491E+00   3.453743E+00   3.415509E+00   3.354291E+00   3.319369E+00   3.333505E+00   3.424699E+00   3.583069E+00   3.817743E+00   4.090661E+00   4.375842E+00   4.642383E+00   4.914754E+00   5.188806E+00   5.481509E+00   5.738963E+00   5.936641E+00   6.020752E+00   5.969173E+00   5.783256E+00   5.506680E+00   5.158401E+00   4.773978E+00   4.398742E+00   4.037167E+00   3.707887E+00   3.425358E+00   3.169429E+00   2.936471E+00   2.729806E+00   2.576989E+00   2.473044E+00   2.423245E+00   2.431004E+00   2.485656E+00   2.602080E+00   2.752229E+00   2.949040E+00   3.173052E+00   3.409180E+00   3.626915E+00   3.804046E+00   3.901093E+00   3.955297E+00   3.968603E+00   3.953294E+00   3.917703E+00   3.893028E+00   3.872759E+00   3.862302E+00   3.836282E+00   3.818118E+00   3.802598E+00   3.816001E+00   3.857524E+00   3.934120E+00   4.037925E+00   4.145345E+00   4.244034E+00   4.295500E+00   4.320824E+00   4.320883E+00   4.298305E+00   4.258390E+00   4.217251E+00   4.165438E+00   4.084827E+00