# LPF package for  MODFLOW-2005, generated by Flopy.
         0    -1E+30         0  
         0
         0
   1.000000E+00
         0
         0
INTERNAL               1 (200E15.6) -1 #hk layer 1                    
   3.962789E+00   3.935264E+00   3.904611E+00   3.862595E+00   3.833846E+00   3.813416E+00   3.802054E+00   3.789306E+00   3.787688E+00   3.761426E+00   3.731990E+00   3.688959E+00   3.641723E+00   3.585311E+00   3.527713E+00   3.488808E+00   3.471297E+00   3.475617E+00   3.487880E+00   3.514986E+00   3.555503E+00   3.610236E+00   3.676268E+00   3.769783E+00   3.856474E+00   3.942665E+00   4.024036E+00   4.102613E+00   4.173357E+00   4.228846E+00   4.263424E+00   4.278090E+00   4.262393E+00   4.208659E+00   4.144028E+00   4.060943E+00   3.983562E+00   3.902409E+00   3.837253E+00   3.780359E+00   3.734325E+00   3.704991E+00   3.677630E+00   3.641435E+00   3.612116E+00   3.596179E+00   3.597802E+00   3.596349E+00   3.596946E+00   3.587554E+00   3.565751E+00   3.538333E+00   3.502465E+00   3.460780E+00   3.425040E+00   3.380296E+00   3.347984E+00   3.330555E+00   3.342524E+00   3.384713E+00   3.437827E+00   3.508601E+00   3.588948E+00   3.667511E+00   3.724884E+00   3.774167E+00   3.803763E+00   3.824013E+00   3.825977E+00   3.806048E+00   3.768633E+00   3.724255E+00   3.683893E+00   3.658848E+00   3.654757E+00   3.647202E+00   3.655475E+00   3.651783E+00   3.644593E+00   3.635169E+00   3.635766E+00   3.623737E+00   3.611391E+00   3.599432E+00   3.583031E+00   3.572175E+00   3.569950E+00   3.582267E+00   3.598234E+00   3.649034E+00   3.714907E+00   3.790910E+00   3.863275E+00   3.918296E+00   3.938005E+00   3.934202E+00   3.911679E+00   3.868022E+00   3.820027E+00   3.755057E+00   3.688618E+00   3.614181E+00   3.538649E+00   3.483373E+00   3.436662E+00   3.398490E+00   3.375335E+00   3.354255E+00   3.352329E+00   3.340825E+00   3.328572E+00   3.308894E+00   3.299318E+00   3.305007E+00   3.313860E+00   3.344024E+00   3.403446E+00   3.481966E+00   3.577493E+00   3.681977E+00   3.773220E+00   3.873472E+00   3.963102E+00   4.047408E+00   4.127104E+00   4.192582E+00   4.268156E+00   4.325085E+00   4.356670E+00   4.372919E+00   4.360066E+00   4.335393E+00   4.308164E+00   4.267365E+00   4.212737E+00   4.168815E+00   4.110814E+00   4.072098E+00   4.050218E+00   4.051367E+00   4.074080E+00   4.106658E+00   4.158651E+00   4.213178E+00   4.279381E+00   4.348974E+00   4.431260E+00   4.525062E+00   4.590604E+00   4.616849E+00   4.595783E+00   4.545310E+00   4.457871E+00   4.370964E+00   4.269304E+00   4.164077E+00   4.064116E+00   3.962213E+00   3.866615E+00   3.760831E+00   3.673640E+00   3.573133E+00   3.493872E+00   3.440042E+00   3.401888E+00   3.385098E+00   3.389127E+00   3.415188E+00   3.461373E+00   3.544878E+00   3.647733E+00   3.756835E+00   3.870599E+00   3.969627E+00   4.043522E+00   4.094804E+00   4.129419E+00   4.160842E+00   4.187366E+00   4.202428E+00   4.222253E+00   4.238350E+00   4.251746E+00   4.250447E+00   4.238962E+00   4.202260E+00   4.153172E+00   4.090028E+00   4.032169E+00   3.993750E+00   3.975694E+00   3.977536E+00   3.985458E+00   4.000482E+00   4.005306E+00   4.010340E+00   4.010003E+00   3.991224E+00   3.983204E+00   3.979293E+00
   3.931092E+00   3.887729E+00   3.829787E+00   3.762594E+00   3.694525E+00   3.655482E+00   3.623477E+00   3.599695E+00   3.585431E+00   3.569021E+00   3.518152E+00   3.458911E+00   3.366248E+00   3.277628E+00   3.189050E+00   3.124362E+00   3.088146E+00   3.089499E+00   3.108927E+00   3.145995E+00   3.206989E+00   3.294869E+00   3.408931E+00   3.546230E+00   3.701366E+00   3.869472E+00   4.044266E+00   4.212950E+00   4.363893E+00   4.476783E+00   4.542675E+00   4.578410E+00   4.539314E+00   4.449846E+00   4.313705E+00   4.166808E+00   4.016776E+00   3.866334E+00   3.721134E+00   3.617140E+00   3.531993E+00   3.477496E+00   3.426544E+00   3.378073E+00   3.326837E+00   3.299307E+00   3.291298E+00   3.285396E+00   3.282690E+00   3.269280E+00   3.241726E+00   3.197860E+00   3.151672E+00   3.091337E+00   3.018935E+00   2.952753E+00   2.904488E+00   2.881141E+00   2.896682E+00   2.955703E+00   3.048176E+00   3.177361E+00   3.316402E+00   3.439360E+00   3.540902E+00   3.620247E+00   3.659837E+00   3.670934E+00   3.654572E+00   3.607819E+00   3.536855E+00   3.463097E+00   3.394885E+00   3.346653E+00   3.318293E+00   3.305781E+00   3.306813E+00   3.317308E+00   3.330786E+00   3.344684E+00   3.346186E+00   3.339667E+00   3.320275E+00   3.291533E+00   3.255522E+00   3.224090E+00   3.214258E+00   3.223242E+00   3.256937E+00   3.326753E+00   3.449583E+00   3.571615E+00   3.708066E+00   3.808124E+00   3.860801E+00   3.865778E+00   3.817319E+00   3.747959E+00   3.658666E+00   3.552890E+00   3.435877E+00   3.309060E+00   3.182565E+00   3.081843E+00   3.002574E+00   2.939417E+00   2.898918E+00   2.875513E+00   2.857818E+00   2.842622E+00   2.823144E+00   2.810552E+00   2.814564E+00   2.824076E+00   2.855838E+00   2.913344E+00   2.997080E+00   3.108518E+00   3.251891E+00   3.408389E+00   3.571160E+00   3.748727E+00   3.920155E+00   4.087103E+00   4.236446E+00   4.381871E+00   4.511697E+00   4.608067E+00   4.648593E+00   4.658995E+00   4.638970E+00   4.593412E+00   4.518828E+00   4.415320E+00   4.309191E+00   4.212120E+00   4.139712E+00   4.086329E+00   4.073421E+00   4.088291E+00   4.138679E+00   4.222541E+00   4.297220E+00   4.406843E+00   4.525834E+00   4.681005E+00   4.854684E+00   5.037999E+00   5.182717E+00   5.230496E+00   5.195508E+00   5.072725E+00   4.905280E+00   4.710522E+00   4.497504E+00   4.284787E+00   4.077363E+00   3.883699E+00   3.689628E+00   3.513278E+00   3.339237E+00   3.195040E+00   3.067147E+00   2.986238E+00   2.935770E+00   2.910908E+00   2.919129E+00   2.971662E+00   3.068327E+00   3.207999E+00   3.374000E+00   3.558237E+00   3.746579E+00   3.909744E+00   4.045721E+00   4.142376E+00   4.213393E+00   4.270808E+00   4.313189E+00   4.348060E+00   4.379339E+00   4.414712E+00   4.425040E+00   4.420257E+00   4.382123E+00   4.328820E+00   4.247930E+00   4.153229E+00   4.068638E+00   4.005191E+00   4.004302E+00   4.019193E+00   4.045198E+00   4.059905E+00   4.058285E+00   4.055025E+00   4.037039E+00   4.011871E+00   3.986773E+00   3.982345E+00
   3.911446E+00   3.831510E+00   3.749115E+00   3.665318E+00   3.598386E+00   3.527449E+00   3.481988E+00   3.448083E+00   3.426265E+00   3.389743E+00   3.342201E+00   3.261501E+00   3.174553E+00   3.070507E+00   2.974585E+00   2.897264E+00   2.853285E+00   2.845984E+00   2.866231E+00   2.912516E+00   2.976510E+00   3.079210E+00   3.215809E+00   3.387598E+00   3.577044E+00   3.793381E+00   4.037984E+00   4.276577E+00   4.495385E+00   4.657368E+00   4.768158E+00   4.801234E+00   4.762584E+00   4.652427E+00   4.500311E+00   4.292709E+00   4.082097E+00   3.862971E+00   3.679807E+00   3.528434E+00   3.415808E+00   3.325091E+00   3.258900E+00   3.194274E+00   3.126691E+00   3.063439E+00   3.038801E+00   3.013730E+00   3.011743E+00   3.010667E+00   3.004081E+00   2.978863E+00   2.952735E+00   2.897409E+00   2.834317E+00   2.772258E+00   2.717476E+00   2.691537E+00   2.709422E+00   2.778858E+00   2.893390E+00   3.038301E+00   3.196665E+00   3.347552E+00   3.465040E+00   3.536527E+00   3.565480E+00   3.554811E+00   3.505430E+00   3.429718E+00   3.323784E+00   3.222681E+00   3.129788E+00   3.063048E+00   3.021097E+00   3.000822E+00   3.008725E+00   3.033511E+00   3.074626E+00   3.111119E+00   3.131060E+00   3.131442E+00   3.116610E+00   3.074133E+00   3.034303E+00   2.993302E+00   2.964979E+00   2.957774E+00   2.984595E+00   3.066827E+00   3.196409E+00   3.362213E+00   3.523870E+00   3.667833E+00   3.738698E+00   3.748286E+00   3.707519E+00   3.629443E+00   3.533422E+00   3.403077E+00   3.255495E+00   3.101558E+00   2.952841E+00   2.817089E+00   2.714274E+00   2.633730E+00   2.576660E+00   2.543655E+00   2.525913E+00   2.512339E+00   2.502445E+00   2.501252E+00   2.520591E+00   2.552521E+00   2.595402E+00   2.672023E+00   2.769207E+00   2.892591E+00   3.056146E+00   3.237089E+00   3.429982E+00   3.652997E+00   3.878185E+00   4.097957E+00   4.299541E+00   4.472369E+00   4.633201E+00   4.738523E+00   4.800400E+00   4.799326E+00   4.754613E+00   4.666348E+00   4.541177E+00   4.402652E+00   4.261987E+00   4.144517E+00   4.046575E+00   4.001680E+00   3.997335E+00   4.042549E+00   4.127761E+00   4.226718E+00   4.359224E+00   4.514884E+00   4.710739E+00   4.934556E+00   5.204806E+00   5.455163E+00   5.643201E+00   5.717183E+00   5.675155E+00   5.512638E+00   5.265719E+00   4.981383E+00   4.677545E+00   4.377854E+00   4.084721E+00   3.801125E+00   3.529115E+00   3.281358E+00   3.065631E+00   2.875453E+00   2.743180E+00   2.652085E+00   2.600256E+00   2.586697E+00   2.616744E+00   2.692710E+00   2.816010E+00   2.983768E+00   3.191533E+00   3.408177E+00   3.631775E+00   3.835917E+00   4.016148E+00   4.145977E+00   4.243626E+00   4.309452E+00   4.361510E+00   4.400099E+00   4.423109E+00   4.430610E+00   4.437539E+00   4.415788E+00   4.374334E+00   4.306688E+00   4.231983E+00   4.167698E+00   4.107965E+00   4.083615E+00   4.095978E+00   4.140935E+00   4.191720E+00   4.206683E+00   4.196621E+00   4.158402E+00   4.116791E+00   4.076193E+00   4.039363E+00   4.009671E+00
   3.896395E+00   3.808077E+00   3.706663E+00   3.617114E+00   3.544031E+00   3.483294E+00   3.426286E+00   3.386170E+00   3.348394E+00   3.304836E+00   3.237567E+00   3.162009E+00   3.060387E+00   2.958630E+00   2.861071E+00   2.788215E+00   2.738081E+00   2.722185E+00   2.738971E+00   2.785665E+00   2.847113E+00   2.944335E+00   3.081346E+00   3.263949E+00   3.476480E+00   3.718301E+00   3.983691E+00   4.264956E+00   4.516729E+00   4.716500E+00   4.850468E+00   4.915751E+00   4.877704E+00   4.796752E+00   4.627049E+00   4.407471E+00   4.159227E+00   3.904114E+00   3.670947E+00   3.491856E+00   3.347333E+00   3.228583E+00   3.124235E+00   3.027954E+00   2.943377E+00   2.872681E+00   2.826765E+00   2.791034E+00   2.786195E+00   2.799677E+00   2.824489E+00   2.847442E+00   2.863683E+00   2.862895E+00   2.829623E+00   2.784272E+00   2.741074E+00   2.725574E+00   2.748362E+00   2.821066E+00   2.940724E+00   3.095114E+00   3.255764E+00   3.401042E+00   3.504178E+00   3.550852E+00   3.540742E+00   3.482921E+00   3.396749E+00   3.283518E+00   3.157817E+00   3.024808E+00   2.914433E+00   2.824932E+00   2.781284E+00   2.772101E+00   2.795291E+00   2.835761E+00   2.895540E+00   2.947377E+00   2.992058E+00   3.008061E+00   2.995799E+00   2.955083E+00   2.894135E+00   2.836947E+00   2.786730E+00   2.764343E+00   2.783951E+00   2.851905E+00   2.984856E+00   3.145445E+00   3.331490E+00   3.491883E+00   3.600681E+00   3.640189E+00   3.616160E+00   3.548238E+00   3.453254E+00   3.323189E+00   3.168684E+00   2.995394E+00   2.832514E+00   2.694585E+00   2.573875E+00   2.487863E+00   2.434034E+00   2.393668E+00   2.381109E+00   2.367116E+00   2.370746E+00   2.385321E+00   2.416053E+00   2.466312E+00   2.530130E+00   2.616421E+00   2.714606E+00   2.835757E+00   2.982115E+00   3.155190E+00   3.350416E+00   3.571516E+00   3.813562E+00   4.059307E+00   4.280812E+00   4.464269E+00   4.608833E+00   4.703977E+00   4.741416E+00   4.728734E+00   4.661913E+00   4.551281E+00   4.399714E+00   4.235762E+00   4.082022E+00   3.944306E+00   3.856144E+00   3.807014E+00   3.816015E+00   3.887368E+00   4.004881E+00   4.149719E+00   4.328906E+00   4.553300E+00   4.811103E+00   5.114226E+00   5.421988E+00   5.737061E+00   5.978599E+00   6.084652E+00   6.043800E+00   5.855774E+00   5.551197E+00   5.188622E+00   4.810438E+00   4.452148E+00   4.092885E+00   3.748838E+00   3.425307E+00   3.138732E+00   2.889558E+00   2.700808E+00   2.550910E+00   2.445336E+00   2.391708E+00   2.380440E+00   2.412928E+00   2.497692E+00   2.634171E+00   2.831305E+00   3.050056E+00   3.292027E+00   3.532025E+00   3.766634E+00   3.958225E+00   4.113319E+00   4.209579E+00   4.281854E+00   4.319470E+00   4.339654E+00   4.337651E+00   4.335173E+00   4.303263E+00   4.281152E+00   4.231718E+00   4.189718E+00   4.155495E+00   4.129991E+00   4.139042E+00   4.185525E+00   4.259171E+00   4.341274E+00   4.394377E+00   4.415992E+00   4.386432E+00   4.323658E+00   4.237319E+00   4.156278E+00   4.092144E+00   4.036623E+00
   3.901782E+00   3.809873E+00   3.713109E+00   3.630291E+00   3.558603E+00   3.493060E+00   3.438157E+00   3.386704E+00   3.350175E+00   3.288875E+00   3.216537E+00   3.121753E+00   3.023646E+00   2.922878E+00   2.831534E+00   2.753383E+00   2.701981E+00   2.679023E+00   2.700083E+00   2.742858E+00   2.817940E+00   2.926813E+00   3.056517E+00   3.230510E+00   3.438581E+00   3.675658E+00   3.932756E+00   4.187771E+00   4.435386E+00   4.641869E+00   4.792171E+00   4.872199E+00   4.908480E+00   4.864273E+00   4.746284E+00   4.553622E+00   4.323446E+00   4.029766E+00   3.758628E+00   3.508262E+00   3.313639E+00   3.156229E+00   3.022320E+00   2.903426E+00   2.799408E+00   2.721159E+00   2.670975E+00   2.638865E+00   2.636471E+00   2.670093E+00   2.738443E+00   2.822617E+00   2.909670E+00   2.960125E+00   2.975653E+00   2.959765E+00   2.944931E+00   2.944283E+00   2.982342E+00   3.056990E+00   3.183808E+00   3.340774E+00   3.498114E+00   3.626552E+00   3.702469E+00   3.704757E+00   3.642859E+00   3.534504E+00   3.393725E+00   3.237343E+00   3.073773E+00   2.923789E+00   2.788063E+00   2.690951E+00   2.641408E+00   2.635926E+00   2.664964E+00   2.729031E+00   2.799718E+00   2.865912E+00   2.917873E+00   2.931053E+00   2.905912E+00   2.851485E+00   2.781613E+00   2.704893E+00   2.636647E+00   2.599263E+00   2.599218E+00   2.653861E+00   2.769771E+00   2.935730E+00   3.119166E+00   3.298563E+00   3.441958E+00   3.517925E+00   3.533796E+00   3.508116E+00   3.444169E+00   3.340190E+00   3.192178E+00   3.012569E+00   2.849046E+00   2.706409E+00   2.596034E+00   2.518732E+00   2.464353E+00   2.428426E+00   2.404797E+00   2.407053E+00   2.422430E+00   2.448798E+00   2.486934E+00   2.553532E+00   2.622072E+00   2.698451E+00   2.790026E+00   2.883462E+00   3.000812E+00   3.141413E+00   3.320233E+00   3.524419E+00   3.753963E+00   3.992046E+00   4.188257E+00   4.355853E+00   4.461551E+00   4.499799E+00   4.505599E+00   4.484908E+00   4.418849E+00   4.309531E+00   4.154397E+00   4.001449E+00   3.840219E+00   3.701604E+00   3.600843E+00   3.565552E+00   3.584712E+00   3.674367E+00   3.811346E+00   4.003936E+00   4.232786E+00   4.505438E+00   4.816796E+00   5.151706E+00   5.489457E+00   5.836992E+00   6.113090E+00   6.268567E+00   6.251051E+00   6.081728E+00   5.759028E+00   5.355379E+00   4.927957E+00   4.504835E+00   4.099219E+00   3.720600E+00   3.368882E+00   3.066618E+00   2.811383E+00   2.601337E+00   2.445749E+00   2.332584E+00   2.270894E+00   2.255104E+00   2.288459E+00   2.376422E+00   2.523536E+00   2.715574E+00   2.945031E+00   3.191011E+00   3.443426E+00   3.689143E+00   3.913522E+00   4.080111E+00   4.192947E+00   4.246836E+00   4.279623E+00   4.268612E+00   4.248101E+00   4.206882E+00   4.172904E+00   4.135487E+00   4.108335E+00   4.081618E+00   4.088875E+00   4.123140E+00   4.193992E+00   4.301455E+00   4.424165E+00   4.541675E+00   4.623512E+00   4.634345E+00   4.598347E+00   4.522941E+00   4.414847E+00   4.300424E+00   4.189285E+00   4.089396E+00
   3.927735E+00   3.860547E+00   3.788517E+00   3.723062E+00   3.643554E+00   3.574888E+00   3.506983E+00   3.459961E+00   3.412436E+00   3.347556E+00   3.262899E+00   3.164211E+00   3.053004E+00   2.956360E+00   2.865056E+00   2.791602E+00   2.733568E+00   2.716504E+00   2.734986E+00   2.798246E+00   2.881971E+00   2.997980E+00   3.128219E+00   3.293280E+00   3.480630E+00   3.681426E+00   3.901638E+00   4.138223E+00   4.358479E+00   4.559214E+00   4.716052E+00   4.836970E+00   4.928617E+00   4.954178E+00   4.886161E+00   4.748712E+00   4.528530E+00   4.226462E+00   3.907732E+00   3.603713E+00   3.350535E+00   3.144161E+00   2.970412E+00   2.836695E+00   2.727957E+00   2.642484E+00   2.593540E+00   2.572329E+00   2.599534E+00   2.666770E+00   2.775867E+00   2.913083E+00   3.051176E+00   3.165541E+00   3.227511E+00   3.263299E+00   3.280605E+00   3.300520E+00   3.350329E+00   3.445015E+00   3.575922E+00   3.731696E+00   3.893770E+00   4.002102E+00   4.042148E+00   3.995019E+00   3.872420E+00   3.710727E+00   3.517641E+00   3.313076E+00   3.125100E+00   2.946150E+00   2.803070E+00   2.694200E+00   2.638650E+00   2.633879E+00   2.659224E+00   2.716398E+00   2.789543E+00   2.847166E+00   2.889339E+00   2.890077E+00   2.852538E+00   2.789681E+00   2.706509E+00   2.613691E+00   2.526609E+00   2.465408E+00   2.452406E+00   2.497956E+00   2.601820E+00   2.760884E+00   2.955858E+00   3.156207E+00   3.334984E+00   3.460471E+00   3.530214E+00   3.550101E+00   3.521808E+00   3.436268E+00   3.299079E+00   3.143495E+00   2.984114E+00   2.847461E+00   2.743592E+00   2.675328E+00   2.636093E+00   2.606205E+00   2.594929E+00   2.592455E+00   2.609603E+00   2.639689E+00   2.691656E+00   2.751113E+00   2.813333E+00   2.871006E+00   2.921679E+00   2.981325E+00   3.060916E+00   3.169767E+00   3.313833E+00   3.483371E+00   3.679827E+00   3.872337E+00   4.036814E+00   4.143362E+00   4.185678E+00   4.176436E+00   4.163523E+00   4.129914E+00   4.091961E+00   4.017694E+00   3.917249E+00   3.791113E+00   3.647933E+00   3.508915E+00   3.404623E+00   3.357960E+00   3.388636E+00   3.479575E+00   3.632103E+00   3.853956E+00   4.107703E+00   4.400745E+00   4.726987E+00   5.081476E+00   5.440035E+00   5.796574E+00   6.091950E+00   6.274581E+00   6.310148E+00   6.157952E+00   5.832192E+00   5.429842E+00   4.998661E+00   4.558934E+00   4.133482E+00   3.732200E+00   3.385725E+00   3.081094E+00   2.821608E+00   2.606784E+00   2.437479E+00   2.311585E+00   2.234493E+00   2.206649E+00   2.235915E+00   2.315246E+00   2.456177E+00   2.644314E+00   2.873645E+00   3.128203E+00   3.389368E+00   3.644595E+00   3.861325E+00   4.030130E+00   4.142905E+00   4.209339E+00   4.220399E+00   4.216214E+00   4.168186E+00   4.131449E+00   4.084123E+00   4.053751E+00   4.027719E+00   4.034643E+00   4.066088E+00   4.130749E+00   4.238078E+00   4.388920E+00   4.553461E+00   4.688148E+00   4.764814E+00   4.776771E+00   4.729724E+00   4.655012E+00   4.559378E+00   4.432727E+00   4.291639E+00   4.145145E+00
   3.979209E+00   3.956034E+00   3.916019E+00   3.846061E+00   3.787155E+00   3.702178E+00   3.640312E+00   3.585163E+00   3.538501E+00   3.469796E+00   3.374595E+00   3.260715E+00   3.137064E+00   3.032640E+00   2.943054E+00   2.871713E+00   2.819741E+00   2.790991E+00   2.820291E+00   2.883783E+00   2.984753E+00   3.110780E+00   3.237429E+00   3.391933E+00   3.557250E+00   3.740453E+00   3.941708E+00   4.130914E+00   4.331099E+00   4.528891E+00   4.721985E+00   4.875903E+00   4.993496E+00   5.067554E+00   5.073984E+00   4.979676E+00   4.778326E+00   4.474893E+00   4.123244E+00   3.772980E+00   3.475624E+00   3.218742E+00   3.015729E+00   2.854662E+00   2.731153E+00   2.650320E+00   2.601868E+00   2.606083E+00   2.658580E+00   2.753355E+00   2.901181E+00   3.082850E+00   3.263888E+00   3.424498E+00   3.534754E+00   3.599754E+00   3.639803E+00   3.669778E+00   3.741072E+00   3.854220E+00   4.002446E+00   4.173016E+00   4.335256E+00   4.434005E+00   4.437193E+00   4.350907E+00   4.188419E+00   3.979625E+00   3.749347E+00   3.520190E+00   3.295548E+00   3.104426E+00   2.943761E+00   2.832648E+00   2.759846E+00   2.730274E+00   2.735243E+00   2.771732E+00   2.823703E+00   2.866551E+00   2.880065E+00   2.862389E+00   2.808099E+00   2.741442E+00   2.650892E+00   2.550463E+00   2.459773E+00   2.393733E+00   2.382013E+00   2.432249E+00   2.542574E+00   2.698919E+00   2.900384E+00   3.110121E+00   3.315920E+00   3.493753E+00   3.620249E+00   3.673490E+00   3.669951E+00   3.598914E+00   3.483295E+00   3.343419E+00   3.199818E+00   3.071649E+00   2.981771E+00   2.925922E+00   2.895773E+00   2.879498E+00   2.874103E+00   2.873418E+00   2.885679E+00   2.914712E+00   2.965702E+00   3.022906E+00   3.066721E+00   3.108815E+00   3.122550E+00   3.139378E+00   3.170904E+00   3.221414E+00   3.308822E+00   3.421254E+00   3.553668E+00   3.683389E+00   3.774768E+00   3.814476E+00   3.802776E+00   3.771614E+00   3.744202E+00   3.736854E+00   3.735586E+00   3.736099E+00   3.699125E+00   3.620073E+00   3.521072E+00   3.398018E+00   3.291556E+00   3.229397E+00   3.249450E+00   3.343271E+00   3.512525E+00   3.753461E+00   4.030182E+00   4.332469E+00   4.645400E+00   4.978194E+00   5.325272E+00   5.669847E+00   5.977747E+00   6.189632E+00   6.239397E+00   6.110049E+00   5.834489E+00   5.472549E+00   5.047298E+00   4.617471E+00   4.185446E+00   3.798291E+00   3.451550E+00   3.153535E+00   2.899785E+00   2.673362E+00   2.492591E+00   2.357437E+00   2.272869E+00   2.236700E+00   2.258334E+00   2.327477E+00   2.455800E+00   2.632339E+00   2.854340E+00   3.111397E+00   3.386232E+00   3.643328E+00   3.848953E+00   4.000079E+00   4.092340E+00   4.131783E+00   4.142769E+00   4.116354E+00   4.074757E+00   4.032689E+00   3.995615E+00   3.960537E+00   3.950154E+00   3.955673E+00   4.001176E+00   4.076621E+00   4.203537E+00   4.372808E+00   4.537717E+00   4.676177E+00   4.759676E+00   4.768724E+00   4.728519E+00   4.656271E+00   4.567138E+00   4.446751E+00   4.311425E+00   4.159082E+00
   4.043899E+00   4.084161E+00   4.071426E+00   4.037285E+00   3.960917E+00   3.885103E+00   3.813637E+00   3.759513E+00   3.693051E+00   3.604148E+00   3.480125E+00   3.350240E+00   3.221425E+00   3.114207E+00   3.027760E+00   2.968593E+00   2.913741E+00   2.901067E+00   2.924516E+00   2.989283E+00   3.088441E+00   3.214751E+00   3.342438E+00   3.479083E+00   3.627712E+00   3.797872E+00   3.966190E+00   4.148118E+00   4.342151E+00   4.552009E+00   4.756417E+00   4.954635E+00   5.104978E+00   5.217232E+00   5.243384E+00   5.179576E+00   5.008484E+00   4.735681E+00   4.379933E+00   4.003180E+00   3.651137E+00   3.363169E+00   3.126179E+00   2.944606E+00   2.819204E+00   2.735469E+00   2.706737E+00   2.716514E+00   2.786989E+00   2.908707E+00   3.080087E+00   3.271948E+00   3.457696E+00   3.627885E+00   3.747457E+00   3.825640E+00   3.873831E+00   3.940449E+00   4.035493E+00   4.175011E+00   4.366046E+00   4.565423E+00   4.748478E+00   4.855568E+00   4.847204E+00   4.723742E+00   4.530073E+00   4.301286E+00   4.056923E+00   3.805651E+00   3.577891E+00   3.378647E+00   3.201734E+00   3.065558E+00   2.967879E+00   2.905566E+00   2.885843E+00   2.880350E+00   2.895919E+00   2.904539E+00   2.899613E+00   2.858768E+00   2.798236E+00   2.723819E+00   2.642647E+00   2.554910E+00   2.475549E+00   2.430491E+00   2.431262E+00   2.496833E+00   2.613460E+00   2.781843E+00   2.975692E+00   3.193085E+00   3.411847E+00   3.607627E+00   3.762873E+00   3.837410E+00   3.842292E+00   3.784110E+00   3.672115E+00   3.546357E+00   3.415521E+00   3.298409E+00   3.212254E+00   3.164503E+00   3.148844E+00   3.143740E+00   3.148115E+00   3.160106E+00   3.179163E+00   3.207875E+00   3.260574E+00   3.311352E+00   3.340853E+00   3.346242E+00   3.324911E+00   3.288203E+00   3.258623E+00   3.245276E+00   3.260031E+00   3.298228E+00   3.354598E+00   3.410269E+00   3.442457E+00   3.444364E+00   3.415269E+00   3.382304E+00   3.375089E+00   3.390240E+00   3.444870E+00   3.502756E+00   3.535540E+00   3.519030E+00   3.461884E+00   3.369489E+00   3.284293E+00   3.227723E+00   3.242811E+00   3.322284E+00   3.490762E+00   3.741410E+00   4.034055E+00   4.338465E+00   4.636128E+00   4.931441E+00   5.239542E+00   5.556731E+00   5.846495E+00   6.059392E+00   6.143071E+00   6.062850E+00   5.840111E+00   5.501815E+00   5.102681E+00   4.675526E+00   4.269824E+00   3.886211E+00   3.560299E+00   3.278255E+00   3.028583E+00   2.793948E+00   2.601233E+00   2.452723E+00   2.352425E+00   2.309432E+00   2.314424E+00   2.382860E+00   2.500060E+00   2.669362E+00   2.872316E+00   3.123107E+00   3.385468E+00   3.627755E+00   3.815201E+00   3.944179E+00   4.012069E+00   4.035829E+00   4.031952E+00   3.990346E+00   3.961010E+00   3.941240E+00   3.915187E+00   3.893599E+00   3.876096E+00   3.878782E+00   3.914395E+00   3.979412E+00   4.088895E+00   4.229762E+00   4.382312E+00   4.501436E+00   4.582016E+00   4.594579E+00   4.576195E+00   4.527866E+00   4.442982E+00   4.360953E+00   4.255192E+00   4.139289E+00
   4.118153E+00   4.210760E+00   4.262676E+00   4.250014E+00   4.208509E+00   4.125162E+00   4.065201E+00   3.997407E+00   3.909272E+00   3.779634E+00   3.618777E+00   3.459000E+00   3.315377E+00   3.196729E+00   3.115731E+00   3.068217E+00   3.036218E+00   3.024500E+00   3.037656E+00   3.091262E+00   3.170799E+00   3.276566E+00   3.403958E+00   3.532394E+00   3.672825E+00   3.816948E+00   3.980508E+00   4.159995E+00   4.383792E+00   4.596604E+00   4.813904E+00   5.005857E+00   5.181308E+00   5.288974E+00   5.335399E+00   5.284543E+00   5.155389E+00   4.924203E+00   4.610723E+00   4.238526E+00   3.876774E+00   3.553587E+00   3.294510E+00   3.100620E+00   2.959338E+00   2.876822E+00   2.846566E+00   2.876353E+00   2.957402E+00   3.077986E+00   3.237909E+00   3.413381E+00   3.595056E+00   3.735962E+00   3.842248E+00   3.909442E+00   3.972815E+00   4.057477E+00   4.186922E+00   4.375721E+00   4.611144E+00   4.858459E+00   5.050794E+00   5.164234E+00   5.161596E+00   5.043917E+00   4.842749E+00   4.610268E+00   4.366019E+00   4.127719E+00   3.916879E+00   3.720197E+00   3.534935E+00   3.381975E+00   3.238253E+00   3.137951E+00   3.067876E+00   3.019856E+00   2.986291E+00   2.955418E+00   2.920620E+00   2.867059E+00   2.804452E+00   2.742051E+00   2.669326E+00   2.616668E+00   2.576021E+00   2.565894E+00   2.601272E+00   2.681829E+00   2.828871E+00   3.010641E+00   3.222947E+00   3.449857E+00   3.653306E+00   3.812640E+00   3.942694E+00   4.019995E+00   4.008581E+00   3.951818E+00   3.841132E+00   3.725900E+00   3.609706E+00   3.506035E+00   3.425540E+00   3.373173E+00   3.342720E+00   3.343928E+00   3.354481E+00   3.380127E+00   3.413701E+00   3.449853E+00   3.492744E+00   3.513556E+00   3.511652E+00   3.486544E+00   3.433268E+00   3.358828E+00   3.270711E+00   3.190296E+00   3.133060E+00   3.100635E+00   3.091625E+00   3.086554E+00   3.077641E+00   3.064623E+00   3.046391E+00   3.046679E+00   3.069947E+00   3.129109E+00   3.219832E+00   3.329767E+00   3.413244E+00   3.460673E+00   3.453921E+00   3.415679E+00   3.354452E+00   3.319514E+00   3.333637E+00   3.424816E+00   3.583167E+00   3.817809E+00   4.090675E+00   4.375788E+00   4.642257E+00   4.914560E+00   5.188564E+00   5.481243E+00   5.738687E+00   5.936379E+00   6.020524E+00   5.968991E+00   5.783132E+00   5.506620E+00   5.158404E+00   4.774039E+00   4.398841E+00   4.037281E+00   3.707993E+00   3.425446E+00   3.169497E+00   2.936525E+00   2.729856E+00   2.577049E+00   2.473119E+00   2.423342E+00   2.431124E+00   2.485804E+00   2.602262E+00   2.752453E+00   2.949308E+00   3.173367E+00   3.409544E+00   3.627321E+00   3.804486E+00   3.901546E+00   3.955748E+00   3.969044E+00   3.953722E+00   3.918122E+00   3.893445E+00   3.873179E+00   3.862725E+00   3.836712E+00   3.818554E+00   3.803039E+00   3.816441E+00   3.857963E+00   3.934559E+00   4.038360E+00   4.145771E+00   4.244440E+00   4.295863E+00   4.321137E+00   4.321138E+00   4.298506E+00   4.258543E+00   4.217362E+00   4.165511E+00   4.084864E+00