# LPF package for  MODFLOW-2005, generated by Flopy.
         0    -1E+30         0  
         0
         0
   1.000000E+00
         0
         0
INTERNAL               1 (200E15.6) -1 #hk layer 1                    
   3.962820E+00   3.935320E+00   3.904694E+00   3.862701E+00   3.833973E+00   3.813565E+00   3.802220E+00   3.789478E+00   3.787853E+00   3.761569E+00   3.732102E+00   3.689032E+00   3.641749E+00   3.585294E+00   3.527660E+00   3.488732E+00   3.471208E+00   3.475525E+00   3.487793E+00   3.514914E+00   3.555449E+00   3.610207E+00   3.676269E+00   3.769817E+00   3.856548E+00   3.942778E+00   4.024191E+00   4.102804E+00   4.173581E+00   4.229099E+00   4.263700E+00   4.278381E+00   4.262686E+00   4.208944E+00   4.144293E+00   4.061184E+00   3.983764E+00   3.902571E+00   3.837369E+00   3.780432E+00   3.734358E+00   3.704995E+00   3.677614E+00   3.641414E+00   3.612108E+00   3.596194E+00   3.597858E+00   3.596458E+00   3.597111E+00   3.587779E+00   3.566030E+00   3.538664E+00   3.502838E+00   3.461181E+00   3.425462E+00   3.380722E+00   3.348407E+00   3.330964E+00   3.342915E+00   3.385082E+00   3.438168E+00   3.508909E+00   3.589220E+00   3.667741E+00   3.725070E+00   3.774304E+00   3.803852E+00   3.824056E+00   3.825977E+00   3.806008E+00   3.768559E+00   3.724156E+00   3.683776E+00   3.658717E+00   3.654620E+00   3.647070E+00   3.655357E+00   3.651690E+00   3.644532E+00   3.635143E+00   3.635771E+00   3.623773E+00   3.611440E+00   3.599488E+00   3.583078E+00   3.572206E+00   3.569957E+00   3.582249E+00   3.598189E+00   3.648968E+00   3.714828E+00   3.790829E+00   3.863208E+00   3.918263E+00   3.938017E+00   3.934270E+00   3.911808E+00   3.868210E+00   3.820268E+00   3.755332E+00   3.688915E+00   3.614482E+00   3.538943E+00   3.483648E+00   3.436913E+00   3.398711E+00   3.375529E+00   3.354418E+00   3.352461E+00   3.340928E+00   3.328645E+00   3.308938E+00   3.299340E+00   3.305011E+00   3.313851E+00   3.344008E+00   3.403424E+00   3.481948E+00   3.577485E+00   3.681990E+00   3.773261E+00   3.873545E+00   3.963212E+00   4.047560E+00   4.127294E+00   4.192808E+00   4.268405E+00   4.325350E+00   4.356934E+00   4.373172E+00   4.360303E+00   4.335607E+00   4.308351E+00   4.267523E+00   4.212862E+00   4.168906E+00   4.110868E+00   4.072111E+00   4.050198E+00   4.051321E+00   4.074012E+00   4.106577E+00   4.158567E+00   4.213093E+00   4.279301E+00   4.348899E+00   4.431194E+00   4.525000E+00   4.590551E+00   4.616807E+00   4.595748E+00   4.545290E+00   4.457871E+00   4.370985E+00   4.269343E+00   4.164134E+00   4.064186E+00   3.962293E+00   3.866704E+00   3.760930E+00   3.673749E+00   3.573256E+00   3.494012E+00   3.440200E+00   3.402071E+00   3.385306E+00   3.389361E+00   3.415450E+00   3.461663E+00   3.545195E+00   3.648073E+00   3.757189E+00   3.870949E+00   3.969957E+00   4.043816E+00   4.095047E+00   4.129611E+00   4.160985E+00   4.187458E+00   4.202476E+00   4.222261E+00   4.238325E+00   4.251695E+00   4.250372E+00   4.238870E+00   4.202154E+00   4.153056E+00   4.089905E+00   4.032041E+00   3.993616E+00   3.975561E+00   3.977405E+00   3.985330E+00   4.000365E+00   4.005207E+00   4.010262E+00   4.009943E+00   3.991180E+00   3.983174E+00   3.979278E+00
   3.931134E+00   3.887813E+00   3.829910E+00   3.762752E+00   3.694716E+00   3.655707E+00   3.623723E+00   3.599952E+00   3.585676E+00   3.569232E+00   3.518308E+00   3.459002E+00   3.366261E+00   3.277570E+00   3.188934E+00   3.124207E+00   3.087970E+00   3.089319E+00   3.108756E+00   3.145848E+00   3.206875E+00   3.294795E+00   3.408907E+00   3.546267E+00   3.701473E+00   3.869658E+00   4.044531E+00   4.213297E+00   4.364315E+00   4.477274E+00   4.543215E+00   4.578982E+00   4.539893E+00   4.450403E+00   4.314225E+00   4.167270E+00   4.017166E+00   3.866637E+00   3.721352E+00   3.617277E+00   3.532061E+00   3.477510E+00   3.426526E+00   3.378042E+00   3.326822E+00   3.299332E+00   3.291387E+00   3.285572E+00   3.282965E+00   3.269658E+00   3.242204E+00   3.198425E+00   3.152309E+00   3.092021E+00   3.019643E+00   2.953467E+00   2.905194E+00   2.881824E+00   2.897336E+00   2.956325E+00   3.048760E+00   3.177900E+00   3.316888E+00   3.439780E+00   3.541245E+00   3.620507E+00   3.660010E+00   3.671022E+00   3.654581E+00   3.607758E+00   3.536733E+00   3.462932E+00   3.394684E+00   3.346434E+00   3.318068E+00   3.305567E+00   3.306630E+00   3.317173E+00   3.330713E+00   3.344675E+00   3.346235E+00   3.339761E+00   3.320399E+00   3.291660E+00   3.255633E+00   3.224165E+00   3.214290E+00   3.223224E+00   3.256872E+00   3.326648E+00   3.449451E+00   3.571481E+00   3.707956E+00   3.808067E+00   3.860827E+00   3.865907E+00   3.817555E+00   3.748296E+00   3.659086E+00   3.553364E+00   3.436377E+00   3.309554E+00   3.183038E+00   3.082279E+00   3.002969E+00   2.939767E+00   2.899221E+00   2.875767E+00   2.858025E+00   2.842781E+00   2.823257E+00   2.810625E+00   2.814605E+00   2.824090E+00   2.855831E+00   2.913325E+00   2.997059E+00   3.108502E+00   3.251896E+00   3.408429E+00   3.571253E+00   3.748886E+00   3.920390E+00   4.087420E+00   4.236842E+00   4.382338E+00   4.512218E+00   4.608619E+00   4.649143E+00   4.659519E+00   4.639449E+00   4.593839E+00   4.519192E+00   4.415616E+00   4.309417E+00   4.212274E+00   4.139788E+00   4.086328E+00   4.073355E+00   4.088176E+00   4.138527E+00   4.222368E+00   4.297042E+00   4.406663E+00   4.525661E+00   4.680840E+00   4.854531E+00   5.037856E+00   5.182590E+00   5.230387E+00   5.195416E+00   5.072668E+00   4.905259E+00   4.710539E+00   4.497555E+00   4.284867E+00   4.077466E+00   3.883822E+00   3.689765E+00   3.513429E+00   3.339402E+00   3.195225E+00   3.067359E+00   2.986481E+00   2.936051E+00   2.911230E+00   2.919495E+00   2.972076E+00   3.068793E+00   3.208516E+00   3.374563E+00   3.558831E+00   3.747176E+00   3.910314E+00   4.046234E+00   4.142806E+00   4.213728E+00   4.271049E+00   4.313337E+00   4.348122E+00   4.379330E+00   4.414640E+00   4.424920E+00   4.420100E+00   4.381938E+00   4.328611E+00   4.247703E+00   4.152994E+00   4.068397E+00   4.004944E+00   4.004055E+00   4.018953E+00   4.044973E+00   4.059701E+00   4.058111E+00   4.054885E+00   4.036932E+00   4.011791E+00   3.986722E+00   3.982321E+00
   3.911478E+00   3.831574E+00   3.749211E+00   3.665447E+00   3.598552E+00   3.527648E+00   3.482216E+00   3.448320E+00   3.426495E+00   3.389934E+00   3.342328E+00   3.261545E+00   3.174509E+00   3.070377E+00   2.974387E+00   2.897022E+00   2.853018E+00   2.845711E+00   2.865970E+00   2.912283E+00   2.976318E+00   3.079067E+00   3.215727E+00   3.387593E+00   3.577127E+00   3.793567E+00   4.038285E+00   4.276999E+00   4.495928E+00   4.658021E+00   4.768901E+00   4.802033E+00   4.763401E+00   4.653225E+00   4.501053E+00   4.293367E+00   4.082643E+00   3.863400E+00   3.680114E+00   3.528632E+00   3.415913E+00   3.325127E+00   3.258892E+00   3.194250E+00   3.126681E+00   3.063473E+00   3.038908E+00   3.013937E+00   3.012066E+00   3.011122E+00   3.004669E+00   2.979572E+00   2.953546E+00   2.898288E+00   2.835238E+00   2.773190E+00   2.718396E+00   2.692432E+00   2.710283E+00   2.779682E+00   2.894170E+00   3.039027E+00   3.197322E+00   3.348121E+00   3.465508E+00   3.536882E+00   3.565720E+00   3.554938E+00   3.505454E+00   3.429647E+00   3.323634E+00   3.222468E+00   3.129534E+00   3.062777E+00   3.020832E+00   3.000583E+00   3.008533E+00   3.033387E+00   3.074584E+00   3.111164E+00   3.131185E+00   3.131626E+00   3.116830E+00   3.074356E+00   3.034498E+00   2.993446E+00   2.965058E+00   2.957785E+00   2.984541E+00   3.066720E+00   3.196268E+00   3.362061E+00   3.523744E+00   3.667768E+00   3.738733E+00   3.748450E+00   3.707821E+00   3.629871E+00   3.533950E+00   3.403668E+00   3.256108E+00   3.102159E+00   2.953405E+00   2.817603E+00   2.714732E+00   2.634131E+00   2.577003E+00   2.543941E+00   2.526144E+00   2.512521E+00   2.502580E+00   2.501346E+00   2.520651E+00   2.552554E+00   2.595417E+00   2.672026E+00   2.769212E+00   2.892610E+00   3.056192E+00   3.237183E+00   3.430146E+00   3.653256E+00   3.878554E+00   4.098444E+00   4.300143E+00   4.473070E+00   4.633975E+00   4.739331E+00   4.801201E+00   4.800084E+00   4.755301E+00   4.666942E+00   4.541666E+00   4.403031E+00   4.262257E+00   4.144676E+00   4.046626E+00   4.001631E+00   3.997200E+00   4.042349E+00   4.127518E+00   4.226449E+00   4.358945E+00   4.514606E+00   4.710466E+00   4.934294E+00   5.204551E+00   5.454923E+00   5.642981E+00   5.716987E+00   5.674984E+00   5.512506E+00   5.265634E+00   4.981345E+00   4.677554E+00   4.377903E+00   4.084804E+00   3.801234E+00   3.529245E+00   3.281504E+00   3.065797E+00   2.875644E+00   2.743404E+00   2.652349E+00   2.600566E+00   2.587057E+00   2.617159E+00   2.693187E+00   2.816553E+00   2.984378E+00   3.192203E+00   3.408885E+00   3.632489E+00   3.836599E+00   4.016756E+00   4.146481E+00   4.244006E+00   4.309706E+00   4.361644E+00   4.400123E+00   4.423039E+00   4.430466E+00   4.437329E+00   4.415532E+00   4.374044E+00   4.306378E+00   4.231661E+00   4.167372E+00   4.107638E+00   4.083290E+00   4.095663E+00   4.140639E+00   4.191453E+00   4.206452E+00   4.196432E+00   4.158253E+00   4.116678E+00   4.076111E+00   4.039310E+00   4.009646E+00
   3.896397E+00   3.808083E+00   3.706683E+00   3.617152E+00   3.544098E+00   3.483394E+00   3.426414E+00   3.386315E+00   3.348530E+00   3.304936E+00   3.237599E+00   3.161955E+00   3.060239E+00   2.958400E+00   2.860774E+00   2.787873E+00   2.737715E+00   2.721814E+00   2.738610E+00   2.785336E+00   2.846827E+00   2.944104E+00   3.081180E+00   3.263862E+00   3.476489E+00   3.718427E+00   3.983948E+00   4.265364E+00   4.517296E+00   4.717215E+00   4.851311E+00   4.916685E+00   4.878682E+00   4.797720E+00   4.627962E+00   4.408279E+00   4.159904E+00   3.904649E+00   3.671345E+00   3.492127E+00   3.347497E+00   3.228662E+00   3.124261E+00   3.027956E+00   2.943388E+00   2.872732E+00   2.826883E+00   2.791246E+00   2.786528E+00   2.800148E+00   2.825112E+00   2.848214E+00   2.864590E+00   2.863909E+00   2.830703E+00   2.785378E+00   2.742175E+00   2.726652E+00   2.749405E+00   2.822067E+00   2.941672E+00   3.095995E+00   3.256560E+00   3.401728E+00   3.504737E+00   3.551272E+00   3.541019E+00   3.483062E+00   3.396767E+00   3.283428E+00   3.157637E+00   3.024565E+00   2.914149E+00   2.824638E+00   2.781004E+00   2.771862E+00   2.795115E+00   2.835674E+00   2.895554E+00   2.947495E+00   2.992270E+00   3.008344E+00   2.996123E+00   2.955408E+00   2.894426E+00   2.837168E+00   2.786869E+00   2.764397E+00   2.783927E+00   2.851819E+00   2.984725E+00   3.145302E+00   3.331369E+00   3.491827E+00   3.600727E+00   3.640368E+00   3.616485E+00   3.548697E+00   3.453820E+00   3.323818E+00   3.169334E+00   2.996025E+00   2.833099E+00   2.695113E+00   2.574341E+00   2.488265E+00   2.434377E+00   2.393954E+00   2.381339E+00   2.367299E+00   2.370886E+00   2.385425E+00   2.416130E+00   2.466367E+00   2.530169E+00   2.616458E+00   2.714653E+00   2.835829E+00   2.982228E+00   3.155368E+00   3.350683E+00   3.571895E+00   3.814071E+00   4.059954E+00   4.281588E+00   4.465157E+00   4.609795E+00   4.704966E+00   4.742383E+00   4.729637E+00   4.662713E+00   4.551958E+00   4.400254E+00   4.236160E+00   4.082277E+00   3.944428E+00   3.856143E+00   3.806901E+00   3.815816E+00   3.887103E+00   4.004567E+00   4.149381E+00   4.328557E+00   4.552949E+00   4.810757E+00   5.113883E+00   5.421648E+00   5.736727E+00   5.978271E+00   6.084341E+00   6.043512E+00   5.855525E+00   5.550996E+00   5.188479E+00   4.810358E+00   4.452117E+00   4.092900E+00   3.748892E+00   3.425390E+00   3.138841E+00   2.889696E+00   2.700975E+00   2.551110E+00   2.445577E+00   2.391995E+00   2.380778E+00   2.413323E+00   2.498152E+00   2.634700E+00   2.831902E+00   3.050713E+00   3.292717E+00   3.532718E+00   3.767284E+00   3.958791E+00   4.113761E+00   4.209885E+00   4.282023E+00   4.319514E+00   4.339582E+00   4.337488E+00   4.334933E+00   4.302960E+00   4.280797E+00   4.231334E+00   4.189322E+00   4.155097E+00   4.129602E+00   4.138665E+00   4.185164E+00   4.258838E+00   4.340977E+00   4.394126E+00   4.415788E+00   4.386280E+00   4.323551E+00   4.237249E+00   4.156234E+00   4.092117E+00   4.036612E+00
   3.901746E+00   3.809811E+00   3.713035E+00   3.630212E+00   3.558535E+00   3.493009E+00   3.438133E+00   3.386693E+00   3.350158E+00   3.288824E+00   3.216426E+00   3.121560E+00   3.023370E+00   2.922526E+00   2.831122E+00   2.752930E+00   2.701507E+00   2.678551E+00   2.699629E+00   2.742437E+00   2.817564E+00   2.926490E+00   3.056259E+00   3.230331E+00   3.438495E+00   3.675684E+00   3.932917E+00   4.188089E+00   4.435880E+00   4.642538E+00   4.792999E+00   4.873154E+00   4.909515E+00   4.865335E+00   4.747312E+00   4.554563E+00   4.324255E+00   4.030426E+00   3.759135E+00   3.508630E+00   3.313885E+00   3.156381E+00   3.022405E+00   2.903475E+00   2.799453E+00   2.721226E+00   2.671093E+00   2.639063E+00   2.636777E+00   2.670533E+00   2.739042E+00   2.823387E+00   2.910608E+00   2.961208E+00   2.976835E+00   2.961002E+00   2.946181E+00   2.945520E+00   2.983547E+00   3.058149E+00   3.184907E+00   3.341798E+00   3.499034E+00   3.627344E+00   3.703104E+00   3.705221E+00   3.643150E+00   3.534636E+00   3.393716E+00   3.237218E+00   3.073558E+00   2.923509E+00   2.787752E+00   2.690637E+00   2.641120E+00   2.635688E+00   2.664807E+00   2.728972E+00   2.799776E+00   2.866091E+00   2.918160E+00   2.931419E+00   2.906320E+00   2.851890E+00   2.781973E+00   2.705173E+00   2.636834E+00   2.599353E+00   2.599223E+00   2.653798E+00   2.769660E+00   2.935599E+00   3.119055E+00   3.298513E+00   3.442004E+00   3.518094E+00   3.534107E+00   3.508558E+00   3.444713E+00   3.340800E+00   3.192808E+00   3.013177E+00   2.849609E+00   2.706912E+00   2.596475E+00   2.519112E+00   2.464676E+00   2.428695E+00   2.405014E+00   2.407226E+00   2.422569E+00   2.448909E+00   2.487023E+00   2.553607E+00   2.622144E+00   2.698531E+00   2.790127E+00   2.883602E+00   3.001009E+00   3.141690E+00   3.320609E+00   3.524915E+00   3.754594E+00   3.992820E+00   4.189161E+00   4.356860E+00   4.462617E+00   4.500870E+00   4.506627E+00   4.485851E+00   4.419672E+00   4.310212E+00   4.154922E+00   4.001814E+00   3.840432E+00   3.701675E+00   3.600790E+00   3.565396E+00   3.584476E+00   3.674071E+00   3.811010E+00   4.003575E+00   4.232418E+00   4.505068E+00   4.816429E+00   5.151340E+00   5.489085E+00   5.836605E+00   6.112690E+00   6.268155E+00   6.250643E+00   6.081346E+00   5.758694E+00   5.355107E+00   4.927755E+00   4.504698E+00   4.099140E+00   3.720571E+00   3.368895E+00   3.066668E+00   2.811467E+00   2.601455E+00   2.445899E+00   2.332771E+00   2.271123E+00   2.255378E+00   2.288787E+00   2.376809E+00   2.523986E+00   2.716082E+00   2.945584E+00   3.191586E+00   3.443990E+00   3.689656E+00   3.913942E+00   4.080410E+00   4.193111E+00   4.246872E+00   4.279542E+00   4.268432E+00   4.247835E+00   4.206549E+00   4.172514E+00   4.135052E+00   4.107873E+00   4.081151E+00   4.088418E+00   4.122704E+00   4.193585E+00   4.301086E+00   4.423846E+00   4.541409E+00   4.623309E+00   4.634209E+00   4.598271E+00   4.522915E+00   4.414854E+00   4.300446E+00   4.189308E+00   4.089410E+00
   3.927665E+00   3.860416E+00   3.788341E+00   3.722858E+00   3.643342E+00   3.574679E+00   3.506784E+00   3.459770E+00   3.412237E+00   3.347333E+00   3.262627E+00   3.163875E+00   3.052598E+00   2.955888E+00   2.864532E+00   2.791047E+00   2.733002E+00   2.715944E+00   2.734447E+00   2.797738E+00   2.881510E+00   2.997568E+00   3.127870E+00   3.292999E+00   3.480438E+00   3.681338E+00   3.901680E+00   4.138419E+00   4.358853E+00   4.559775E+00   4.716797E+00   4.837876E+00   4.929648E+00   4.955284E+00   4.887276E+00   4.749771E+00   4.529478E+00   4.227263E+00   3.908376E+00   3.604205E+00   3.350894E+00   3.144412E+00   2.970583E+00   2.836812E+00   2.728050E+00   2.642576E+00   2.593660E+00   2.572506E+00   2.599796E+00   2.667152E+00   2.776404E+00   2.913793E+00   3.052070E+00   3.166605E+00   3.228707E+00   3.264580E+00   3.281932E+00   3.301860E+00   3.351651E+00   3.446298E+00   3.577146E+00   3.732838E+00   3.894798E+00   4.002978E+00   4.042839E+00   3.995508E+00   3.872708E+00   3.710834E+00   3.517592E+00   3.312908E+00   3.124840E+00   2.945836E+00   2.802730E+00   2.693866E+00   2.638348E+00   2.633636E+00   2.659067E+00   2.716354E+00   2.789624E+00   2.847380E+00   2.889668E+00   2.890488E+00   2.852987E+00   2.790121E+00   2.706896E+00   2.613994E+00   2.526814E+00   2.465518E+00   2.452431E+00   2.497912E+00   2.601729E+00   2.760770E+00   2.955757E+00   3.156158E+00   3.335022E+00   3.460625E+00   3.530490E+00   3.550496E+00   3.522298E+00   3.436820E+00   3.299652E+00   3.144054E+00   2.984628E+00   2.847918E+00   2.743987E+00   2.675667E+00   2.636383E+00   2.606445E+00   2.595126E+00   2.592617E+00   2.609738E+00   2.639805E+00   2.691760E+00   2.751217E+00   2.813446E+00   2.871140E+00   2.921849E+00   2.981541E+00   3.061200E+00   3.170138E+00   3.314305E+00   3.483963E+00   3.680549E+00   3.873188E+00   4.037777E+00   4.144407E+00   4.186753E+00   4.177492E+00   4.164517E+00   4.130814E+00   4.092741E+00   4.018329E+00   3.917733E+00   3.791435E+00   3.648102E+00   3.508946E+00   3.404537E+00   3.357784E+00   3.388392E+00   3.479286E+00   3.631787E+00   3.853625E+00   4.107377E+00   4.400431E+00   4.726687E+00   5.081180E+00   5.439724E+00   5.796232E+00   6.091567E+00   6.274151E+00   6.309683E+00   6.157483E+00   5.831760E+00   5.429462E+00   4.998350E+00   4.558691E+00   4.133307E+00   3.732089E+00   3.385666E+00   3.081080E+00   2.821631E+00   2.606843E+00   2.437571E+00   2.311713E+00   2.234656E+00   2.206851E+00   2.236160E+00   2.315535E+00   2.456511E+00   2.644685E+00   2.874041E+00   3.128603E+00   3.389744E+00   3.644909E+00   3.861545E+00   4.030236E+00   4.142893E+00   4.209219E+00   4.220187E+00   4.215917E+00   4.167827E+00   4.131036E+00   4.083664E+00   4.053254E+00   4.027204E+00   4.034120E+00   4.065583E+00   4.130274E+00   4.237650E+00   4.388546E+00   4.553156E+00   4.687922E+00   4.764672E+00   4.776706E+00   4.729728E+00   4.655069E+00   4.559467E+00   4.432819E+00   4.291711E+00   4.145185E+00
   3.979104E+00   3.955836E+00   3.915743E+00   3.845733E+00   3.786788E+00   3.701803E+00   3.639935E+00   3.584791E+00   3.538123E+00   3.469405E+00   3.374177E+00   3.260253E+00   3.136554E+00   3.032079E+00   2.942458E+00   2.871095E+00   2.819120E+00   2.790386E+00   2.819705E+00   2.883232E+00   2.984241E+00   3.110315E+00   3.237019E+00   3.391587E+00   3.556981E+00   3.740278E+00   3.941648E+00   4.130999E+00   4.331354E+00   4.529335E+00   4.722627E+00   4.876732E+00   4.994481E+00   5.068658E+00   5.075155E+00   4.980842E+00   4.779418E+00   4.475860E+00   4.124057E+00   3.773633E+00   3.476128E+00   3.219117E+00   3.016001E+00   2.854860E+00   2.731302E+00   2.650445E+00   2.601994E+00   2.606240E+00   2.658797E+00   2.753667E+00   2.901620E+00   3.083449E+00   3.264660E+00   3.425443E+00   3.535845E+00   3.600954E+00   3.641076E+00   3.671087E+00   3.742391E+00   3.855526E+00   4.003713E+00   4.174212E+00   4.336340E+00   4.434927E+00   4.437908E+00   4.351397E+00   4.188689E+00   3.979695E+00   3.749255E+00   3.519970E+00   3.295243E+00   3.104071E+00   2.943388E+00   2.832285E+00   2.759523E+00   2.730015E+00   2.735073E+00   2.771673E+00   2.823772E+00   2.866748E+00   2.880375E+00   2.862777E+00   2.808525E+00   2.741859E+00   2.651260E+00   2.550753E+00   2.459974E+00   2.393848E+00   2.382052E+00   2.432228E+00   2.542508E+00   2.698831E+00   2.900306E+00   3.110089E+00   3.315965E+00   3.493894E+00   3.620497E+00   3.673836E+00   3.670378E+00   3.599390E+00   3.483791E+00   3.343902E+00   3.200265E+00   3.072045E+00   2.982115E+00   2.926216E+00   2.896024E+00   2.879707E+00   2.874276E+00   2.873565E+00   2.885808E+00   2.914830E+00   2.965821E+00   3.023036E+00   3.066878E+00   3.109010E+00   3.122794E+00   3.139677E+00   3.171275E+00   3.221868E+00   3.309372E+00   3.421907E+00   3.554428E+00   3.684250E+00   3.775709E+00   3.815460E+00   3.803761E+00   3.772564E+00   3.745089E+00   3.737658E+00   3.736285E+00   3.736674E+00   3.699562E+00   3.620365E+00   3.521225E+00   3.398044E+00   3.291477E+00   3.229242E+00   3.249240E+00   3.343032E+00   3.512274E+00   3.753213E+00   4.029959E+00   4.332279E+00   4.645242E+00   4.978054E+00   5.325119E+00   5.669652E+00   5.977484E+00   6.189287E+00   6.238983E+00   6.109591E+00   5.834025E+00   5.472109E+00   5.046908E+00   4.617145E+00   4.185193E+00   3.798109E+00   3.451432E+00   3.153465E+00   2.899755E+00   2.673368E+00   2.492629E+00   2.357504E+00   2.272966E+00   2.236825E+00   2.258487E+00   2.327657E+00   2.456004E+00   2.632555E+00   2.854557E+00   3.111597E+00   3.386390E+00   3.643420E+00   3.848955E+00   3.999983E+00   4.092150E+00   4.131513E+00   4.142428E+00   4.115958E+00   4.074318E+00   4.032214E+00   3.995107E+00   3.960000E+00   3.949597E+00   3.955114E+00   4.000634E+00   4.076115E+00   4.203080E+00   4.372416E+00   4.537406E+00   4.675961E+00   4.759561E+00   4.768705E+00   4.728579E+00   4.656390E+00   4.567290E+00   4.446899E+00   4.311536E+00   4.159141E+00
   4.043771E+00   4.083910E+00   4.071072E+00   4.036847E+00   3.960427E+00   3.884584E+00   3.813113E+00   3.758998E+00   3.692540E+00   3.603643E+00   3.479614E+00   3.349715E+00   3.220876E+00   3.113631E+00   3.027163E+00   2.967985E+00   2.913140E+00   2.900481E+00   2.923956E+00   2.988754E+00   3.087949E+00   3.214296E+00   3.342028E+00   3.478724E+00   3.627414E+00   3.797651E+00   3.966068E+00   4.148120E+00   4.342308E+00   4.552352E+00   4.756959E+00   4.955382E+00   5.105916E+00   5.218325E+00   5.244589E+00   5.180829E+00   5.009716E+00   4.736824E+00   4.380939E+00   4.004016E+00   3.651809E+00   3.363690E+00   3.126573E+00   2.944899E+00   2.819425E+00   2.735640E+00   2.706882E+00   2.716661E+00   2.787166E+00   2.908946E+00   3.080419E+00   3.272401E+00   3.458293E+00   3.628629E+00   3.748334E+00   3.826625E+00   3.874897E+00   3.941577E+00   4.036661E+00   4.176204E+00   4.367238E+00   4.566574E+00   4.749531E+00   4.856464E+00   4.847891E+00   4.724199E+00   4.530303E+00   4.301314E+00   4.056783E+00   3.805382E+00   3.577536E+00   3.378244E+00   3.201318E+00   3.065159E+00   2.967523E+00   2.905275E+00   2.885634E+00   2.880246E+00   2.895928E+00   2.904668E+00   2.899844E+00   2.859072E+00   2.798577E+00   2.724160E+00   2.642952E+00   2.555156E+00   2.475729E+00   2.430606E+00   2.431317E+00   2.496840E+00   2.613433E+00   2.781800E+00   2.975662E+00   3.193096E+00   3.411922E+00   3.607783E+00   3.763113E+00   3.837730E+00   3.842672E+00   3.784527E+00   3.672544E+00   3.546775E+00   3.415911E+00   3.298759E+00   3.212559E+00   3.164765E+00   3.149065E+00   3.143925E+00   3.148269E+00   3.160241E+00   3.179284E+00   3.207995E+00   3.260705E+00   3.311509E+00   3.341049E+00   3.346492E+00   3.325218E+00   3.288572E+00   3.259058E+00   3.245783E+00   3.260611E+00   3.298886E+00   3.355330E+00   3.411066E+00   3.443296E+00   3.445219E+00   3.416106E+00   3.383102E+00   3.375835E+00   3.390919E+00   3.445470E+00   3.503263E+00   3.535937E+00   3.519308E+00   3.462043E+00   3.369543E+00   3.284260E+00   3.227628E+00   3.242678E+00   3.322139E+00   3.490627E+00   3.741297E+00   4.033986E+00   4.338443E+00   4.636155E+00   4.931496E+00   5.239590E+00   5.556737E+00   5.846421E+00   6.059218E+00   6.142787E+00   6.062485E+00   5.839700E+00   5.501392E+00   5.102279E+00   4.675173E+00   4.269533E+00   3.885987E+00   3.560137E+00   3.278141E+00   3.028508E+00   2.793910E+00   2.601222E+00   2.452734E+00   2.352454E+00   2.309479E+00   2.314484E+00   2.382930E+00   2.500132E+00   2.669424E+00   2.872354E+00   3.123109E+00   3.385420E+00   3.627639E+00   3.815009E+00   3.943913E+00   4.011744E+00   4.035454E+00   4.031535E+00   3.989896E+00   3.960532E+00   3.940729E+00   3.914650E+00   3.893037E+00   3.875522E+00   3.878209E+00   3.913839E+00   3.978888E+00   4.088421E+00   4.229353E+00   4.381984E+00   4.501204E+00   4.581891E+00   4.594559E+00   4.576263E+00   4.528004E+00   4.443156E+00   4.361124E+00   4.255324E+00   4.139359E+00
   4.118013E+00   4.210483E+00   4.262273E+00   4.249508E+00   4.207930E+00   4.124549E+00   4.064583E+00   3.996805E+00   3.908692E+00   3.779080E+00   3.618247E+00   3.458484E+00   3.314864E+00   3.196214E+00   3.115214E+00   3.067701E+00   3.035712E+00   3.024017E+00   3.037198E+00   3.090834E+00   3.170400E+00   3.276196E+00   3.403613E+00   3.532081E+00   3.672548E+00   3.816724E+00   3.980361E+00   4.159951E+00   4.383886E+00   4.596874E+00   4.814376E+00   5.006548E+00   5.182205E+00   5.290061E+00   5.336636E+00   5.285876E+00   5.156747E+00   4.925512E+00   4.611914E+00   4.239558E+00   3.877625E+00   3.554269E+00   3.295041E+00   3.101024E+00   2.959641E+00   2.877046E+00   2.846734E+00   2.876490E+00   2.957536E+00   3.078144E+00   3.238120E+00   3.413669E+00   3.595441E+00   3.736457E+00   3.842848E+00   3.910136E+00   3.973592E+00   4.058331E+00   4.187845E+00   4.376698E+00   4.612154E+00   4.859456E+00   5.051724E+00   5.165031E+00   5.162209E+00   5.044313E+00   4.842934E+00   4.610254E+00   4.365838E+00   4.127412E+00   3.916483E+00   3.719756E+00   3.534483E+00   3.381539E+00   3.237859E+00   3.137613E+00   3.067613E+00   3.019681E+00   2.986215E+00   2.955441E+00   2.920733E+00   2.867236E+00   2.804669E+00   2.742281E+00   2.669543E+00   2.616854E+00   2.576168E+00   2.566000E+00   2.601343E+00   2.681872E+00   2.828901E+00   3.010673E+00   3.223002E+00   3.449955E+00   3.653460E+00   3.812859E+00   3.942977E+00   4.020329E+00   4.008954E+00   3.952209E+00   3.841527E+00   3.726283E+00   3.610068E+00   3.506364E+00   3.425831E+00   3.373425E+00   3.342935E+00   3.344108E+00   3.354632E+00   3.380255E+00   3.413816E+00   3.449969E+00   3.492876E+00   3.513721E+00   3.511866E+00   3.486819E+00   3.433605E+00   3.359222E+00   3.271162E+00   3.190797E+00   3.133612E+00   3.101233E+00   3.092269E+00   3.087227E+00   3.078330E+00   3.065307E+00   3.047056E+00   3.047315E+00   3.070548E+00   3.129669E+00   3.220336E+00   3.330209E+00   3.413608E+00   3.460953E+00   3.454110E+00   3.415786E+00   3.354494E+00   3.319516E+00   3.333622E+00   3.424806E+00   3.583180E+00   3.817868E+00   4.090790E+00   4.375968E+00   4.642491E+00   4.914827E+00   5.188826E+00   5.481462E+00   5.738832E+00   5.936417E+00   6.020439E+00   5.968793E+00   5.782848E+00   5.506284E+00   5.158055E+00   4.773705E+00   4.398546E+00   4.037035E+00   3.707798E+00   3.425294E+00   3.169384E+00   2.936443E+00   2.729801E+00   2.577009E+00   2.473089E+00   2.423314E+00   2.431096E+00   2.485769E+00   2.602208E+00   2.752369E+00   2.949183E+00   3.173196E+00   3.409318E+00   3.627038E+00   3.804143E+00   3.901162E+00   3.955333E+00   3.968608E+00   3.953270E+00   3.917658E+00   3.892963E+00   3.872678E+00   3.862200E+00   3.836166E+00   3.817991E+00   3.802477E+00   3.815893E+00   3.857446E+00   3.934083E+00   4.037946E+00   4.145431E+00   4.244192E+00   4.295720E+00   4.321096E+00   4.321190E+00   4.298628E+00   4.258702E+00   4.217524E+00   4.165641E+00   4.084936E+00