# LPF package for  MODFLOW-2005, generated by Flopy.
         0    -1E+30         0  
         0
         0
   1.000000E+00
         0
         0
INTERNAL               1 (200E15.6) -1 #hk layer 1                    
   3.962822E+00   3.935326E+00   3.904701E+00   3.862706E+00   3.833976E+00   3.813561E+00   3.802209E+00   3.789466E+00   3.787847E+00   3.761578E+00   3.732134E+00   3.689096E+00   3.641850E+00   3.585430E+00   3.527822E+00   3.488909E+00   3.471393E+00   3.475708E+00   3.487967E+00   3.515069E+00   3.555583E+00   3.610310E+00   3.676338E+00   3.769850E+00   3.856537E+00   3.942725E+00   4.024099E+00   4.102679E+00   4.173427E+00   4.228927E+00   4.263517E+00   4.278195E+00   4.262511E+00   4.208788E+00   4.144166E+00   4.061092E+00   3.983717E+00   3.902567E+00   3.837409E+00   3.780513E+00   3.734473E+00   3.705133E+00   3.677766E+00   3.641565E+00   3.612239E+00   3.596298E+00   3.597922E+00   3.596472E+00   3.597074E+00   3.587692E+00   3.565899E+00   3.538492E+00   3.502637E+00   3.460960E+00   3.425230E+00   3.380490E+00   3.348183E+00   3.330755E+00   3.342728E+00   3.384917E+00   3.438026E+00   3.508788E+00   3.589121E+00   3.667663E+00   3.725017E+00   3.774276E+00   3.803853E+00   3.824084E+00   3.826032E+00   3.806093E+00   3.768667E+00   3.724289E+00   3.683928E+00   3.658885E+00   3.654799E+00   3.647251E+00   3.655531E+00   3.651848E+00   3.644665E+00   3.635248E+00   3.635846E+00   3.623819E+00   3.611466E+00   3.599500E+00   3.583087E+00   3.572219E+00   3.569981E+00   3.582290E+00   3.598247E+00   3.649039E+00   3.714907E+00   3.790911E+00   3.863282E+00   3.918319E+00   3.938046E+00   3.934263E+00   3.911761E+00   3.868122E+00   3.820143E+00   3.755178E+00   3.688739E+00   3.614295E+00   3.538748E+00   3.483447E+00   3.436713E+00   3.398515E+00   3.375336E+00   3.354238E+00   3.352292E+00   3.340773E+00   3.328510E+00   3.308829E+00   3.299251E+00   3.304941E+00   3.313794E+00   3.343958E+00   3.403374E+00   3.481890E+00   3.577412E+00   3.681890E+00   3.773130E+00   3.873378E+00   3.963012E+00   4.047328E+00   4.127039E+00   4.192538E+00   4.268140E+00   4.325104E+00   4.356729E+00   4.373017E+00   4.360203E+00   4.335567E+00   4.308370E+00   4.267594E+00   4.212982E+00   4.169068E+00   4.111063E+00   4.072334E+00   4.050436E+00   4.051564E+00   4.074252E+00   4.106803E+00   4.158772E+00   4.213273E+00   4.279455E+00   4.349029E+00   4.431303E+00   4.525095E+00   4.590635E+00   4.616881E+00   4.595818E+00   4.545348E+00   4.457914E+00   4.371007E+00   4.269352E+00   4.164128E+00   4.064169E+00   3.962271E+00   3.866681E+00   3.760903E+00   3.673722E+00   3.573227E+00   3.493979E+00   3.440163E+00   3.402025E+00   3.385249E+00   3.389295E+00   3.415371E+00   3.461570E+00   3.545085E+00   3.647945E+00   3.757042E+00   3.870795E+00   3.969799E+00   4.043664E+00   4.094910E+00   4.129487E+00   4.160877E+00   4.187368E+00   4.202409E+00   4.222224E+00   4.238317E+00   4.251712E+00   4.250417E+00   4.238939E+00   4.202243E+00   4.153158E+00   4.090009E+00   4.032145E+00   3.993714E+00   3.975646E+00   3.977474E+00   3.985381E+00   4.000393E+00   4.005213E+00   4.010249E+00   4.009923E+00   3.991158E+00   3.983157E+00   3.979268E+00
   3.931147E+00   3.887838E+00   3.829943E+00   3.762787E+00   3.694748E+00   3.655734E+00   3.623743E+00   3.599968E+00   3.585701E+00   3.569280E+00   3.518397E+00   3.459141E+00   3.366459E+00   3.277821E+00   3.189228E+00   3.124525E+00   3.088298E+00   3.089643E+00   3.109063E+00   3.146126E+00   3.207115E+00   3.294985E+00   3.409044E+00   3.546338E+00   3.701470E+00   3.869576E+00   4.044373E+00   4.213066E+00   4.364027E+00   4.476944E+00   4.542862E+00   4.578626E+00   4.539556E+00   4.450109E+00   4.313992E+00   4.167106E+00   4.017086E+00   3.866645E+00   3.721442E+00   3.617436E+00   3.532280E+00   3.477773E+00   3.426809E+00   3.378321E+00   3.327071E+00   3.299534E+00   3.291517E+00   3.285619E+00   3.282920E+00   3.269523E+00   3.241983E+00   3.198132E+00   3.151960E+00   3.091641E+00   3.019249E+00   2.953075E+00   2.904814E+00   2.881471E+00   2.897016E+00   2.956040E+00   3.048508E+00   3.177682E+00   3.316703E+00   3.439631E+00   3.541134E+00   3.620441E+00   3.659991E+00   3.671055E+00   3.654665E+00   3.607892E+00   3.536916E+00   3.463154E+00   3.394943E+00   3.346718E+00   3.318367E+00   3.305866E+00   3.306912E+00   3.317422E+00   3.330916E+00   3.344825E+00   3.346334E+00   3.339812E+00   3.320412E+00   3.291656E+00   3.255623E+00   3.224166E+00   3.214313E+00   3.223275E+00   3.256953E+00   3.326753E+00   3.449577E+00   3.571612E+00   3.708080E+00   3.808163E+00   3.860880E+00   3.865897E+00   3.817474E+00   3.748142E+00   3.658871E+00   3.553100E+00   3.436080E+00   3.309241E+00   3.182713E+00   3.081953E+00   3.002640E+00   2.939443E+00   2.898905E+00   2.875467E+00   2.857744E+00   2.842523E+00   2.823029E+00   2.810428E+00   2.814438E+00   2.823951E+00   2.855713E+00   2.913218E+00   2.996949E+00   3.108376E+00   3.251739E+00   3.408227E+00   3.570989E+00   3.748550E+00   3.919983E+00   4.086946E+00   4.236319E+00   4.381785E+00   4.511671E+00   4.608111E+00   4.648714E+00   4.659195E+00   4.639247E+00   4.593761E+00   4.519239E+00   4.415770E+00   4.309662E+00   4.212597E+00   4.140180E+00   4.086771E+00   4.073828E+00   4.088658E+00   4.139002E+00   4.222816E+00   4.297448E+00   4.407024E+00   4.525977E+00   4.681115E+00   4.854775E+00   5.038077E+00   5.182792E+00   5.230576E+00   5.195589E+00   5.072815E+00   4.905376E+00   4.710623E+00   4.497605E+00   4.284892E+00   4.077468E+00   3.883810E+00   3.689746E+00   3.513404E+00   3.339374E+00   3.195194E+00   3.067317E+00   2.986431E+00   2.935989E+00   2.911155E+00   2.919405E+00   2.971966E+00   3.068658E+00   3.208354E+00   3.374368E+00   3.558605E+00   3.746930E+00   3.910061E+00   4.045986E+00   4.142577E+00   4.213521E+00   4.270872E+00   4.313196E+00   4.348027E+00   4.379282E+00   4.414644E+00   4.424973E+00   4.420200E+00   4.382081E+00   4.328789E+00   4.247901E+00   4.153200E+00   4.068597E+00   4.005130E+00   4.004217E+00   4.019079E+00   4.045059E+00   4.059746E+00   4.058117E+00   4.054860E+00   4.036889E+00   4.011748E+00   3.986685E+00   3.982298E+00
   3.911514E+00   3.831641E+00   3.749300E+00   3.665549E+00   3.598656E+00   3.527747E+00   3.482303E+00   3.448404E+00   3.426582E+00   3.390047E+00   3.342484E+00   3.261763E+00   3.174796E+00   3.070730E+00   2.974789E+00   2.897454E+00   2.853462E+00   2.846153E+00   2.866392E+00   2.912669E+00   2.976653E+00   3.079342E+00   3.215929E+00   3.387713E+00   3.577156E+00   3.793494E+00   4.038103E+00   4.276714E+00   4.495552E+00   4.657575E+00   4.768414E+00   4.801541E+00   4.762935E+00   4.652820E+00   4.500734E+00   4.293160E+00   4.082556E+00   3.863432E+00   3.680258E+00   3.528874E+00   3.416231E+00   3.325498E+00   3.259290E+00   3.194639E+00   3.127033E+00   3.063758E+00   3.039107E+00   3.014029E+00   3.012044E+00   3.010979E+00   3.004408E+00   2.979208E+00   2.953100E+00   2.897792E+00   2.834718E+00   2.772671E+00   2.717897E+00   2.691961E+00   2.709850E+00   2.779289E+00   2.893819E+00   3.038717E+00   3.197056E+00   3.347901E+00   3.465341E+00   3.536773E+00   3.565674E+00   3.554960E+00   3.505542E+00   3.429804E+00   3.323854E+00   3.222747E+00   3.129853E+00   3.063122E+00   3.021186E+00   3.000931E+00   3.008851E+00   3.033659E+00   3.074792E+00   3.111304E+00   3.131252E+00   3.131634E+00   3.116789E+00   3.074290E+00   3.034431E+00   2.993397E+00   2.965041E+00   2.957808E+00   2.984606E+00   3.066824E+00   3.196398E+00   3.362208E+00   3.523885E+00   3.667887E+00   3.738802E+00   3.748443E+00   3.707723E+00   3.629682E+00   3.533681E+00   3.403339E+00   3.255738E+00   3.101768E+00   2.953004E+00   2.817200E+00   2.714333E+00   2.633736E+00   2.576615E+00   2.543567E+00   2.525789E+00   2.512187E+00   2.502273E+00   2.501070E+00   2.520405E+00   2.552334E+00   2.595217E+00   2.671834E+00   2.769014E+00   2.892388E+00   3.055931E+00   3.236858E+00   3.429737E+00   3.652745E+00   3.877941E+00   4.097735E+00   4.299363E+00   4.472253E+00   4.633170E+00   4.738591E+00   4.800575E+00   4.799613E+00   4.755004E+00   4.666833E+00   4.541731E+00   4.403255E+00   4.262612E+00   4.145143E+00   4.047182E+00   4.002256E+00   3.997865E+00   4.043030E+00   4.128184E+00   4.227078E+00   4.359521E+00   4.515125E+00   4.710931E+00   4.934712E+00   5.204941E+00   5.455290E+00   5.643334E+00   5.717328E+00   5.675310E+00   5.512802E+00   5.265888E+00   4.981550E+00   4.677708E+00   4.378012E+00   4.084874E+00   3.801278E+00   3.529272E+00   3.281518E+00   3.065800E+00   2.875636E+00   2.743382E+00   2.652313E+00   2.600516E+00   2.586992E+00   2.617077E+00   2.693084E+00   2.816423E+00   2.984215E+00   3.192003E+00   3.408652E+00   3.632236E+00   3.836339E+00   4.016504E+00   4.146249E+00   4.243805E+00   4.309542E+00   4.361525E+00   4.400057E+00   4.423033E+00   4.430521E+00   4.437454E+00   4.415714E+00   4.374278E+00   4.306649E+00   4.231955E+00   4.167670E+00   4.107925E+00   4.083549E+00   4.095880E+00   4.140798E+00   4.191545E+00   4.206481E+00   4.196404E+00   4.158188E+00   4.116598E+00   4.076032E+00   4.039249E+00   4.009611E+00
   3.896460E+00   3.808204E+00   3.706845E+00   3.617344E+00   3.544300E+00   3.483592E+00   3.426600E+00   3.386489E+00   3.348707E+00   3.305133E+00   3.237845E+00   3.162263E+00   3.060619E+00   2.958845E+00   2.861272E+00   2.788404E+00   2.738261E+00   2.722354E+00   2.739128E+00   2.785813E+00   2.847247E+00   2.944456E+00   3.081455E+00   3.264051E+00   3.476578E+00   3.718401E+00   3.983802E+00   4.265090E+00   4.516904E+00   4.716728E+00   4.850761E+00   4.916114E+00   4.878135E+00   4.797240E+00   4.627594E+00   4.408052E+00   4.159829E+00   3.904718E+00   3.671545E+00   3.492440E+00   3.347897E+00   3.229123E+00   3.124745E+00   3.028430E+00   2.943818E+00   2.873091E+00   2.827148E+00   2.791398E+00   2.786551E+00   2.800033E+00   2.824857E+00   2.847832E+00   2.864099E+00   2.863338E+00   2.830089E+00   2.784755E+00   2.741569E+00   2.726078E+00   2.748868E+00   2.821571E+00   2.941222E+00   3.095592E+00   3.256209E+00   3.401433E+00   3.504509E+00   3.551116E+00   3.540941E+00   3.483063E+00   3.396849E+00   3.283590E+00   3.157872E+00   3.024857E+00   2.914486E+00   2.824998E+00   2.781371E+00   2.772212E+00   2.795428E+00   2.835926E+00   2.895730E+00   2.947587E+00   2.992276E+00   3.008276E+00   2.995998E+00   2.955252E+00   2.894269E+00   2.837041E+00   2.786786E+00   2.764366E+00   2.783948E+00   2.851886E+00   2.984830E+00   3.145430E+00   3.331497E+00   3.491932E+00   3.600785E+00   3.640353E+00   3.616379E+00   3.548497E+00   3.453534E+00   3.323464E+00   3.168932E+00   2.995601E+00   2.832664E+00   2.694673E+00   2.573901E+00   2.487826E+00   2.433939E+00   2.393523E+00   2.380921E+00   2.366896E+00   2.370503E+00   2.385064E+00   2.415792E+00   2.466048E+00   2.529865E+00   2.616157E+00   2.714339E+00   2.835483E+00   2.981830E+00   3.154897E+00   3.350115E+00   3.571212E+00   3.813265E+00   4.059042E+00   4.280600E+00   4.464139E+00   4.608803E+00   4.704061E+00   4.741624E+00   4.729064E+00   4.662357E+00   4.551821E+00   4.400326E+00   4.236418E+00   4.082695E+00   3.944975E+00   3.856795E+00   3.807626E+00   3.816584E+00   3.887889E+00   4.005341E+00   4.150114E+00   4.329239E+00   4.553576E+00   4.811332E+00   5.114421E+00   5.422171E+00   5.737250E+00   5.978804E+00   6.084881E+00   6.044046E+00   5.856032E+00   5.551456E+00   5.188873E+00   4.810676E+00   4.452364E+00   4.093086E+00   3.749028E+00   3.425490E+00   3.138914E+00   2.889745E+00   2.701008E+00   2.551128E+00   2.445579E+00   2.391984E+00   2.380754E+00   2.413284E+00   2.498093E+00   2.634616E+00   2.831793E+00   3.050574E+00   3.292555E+00   3.532542E+00   3.767113E+00   3.958634E+00   4.113634E+00   4.209790E+00   4.281965E+00   4.319497E+00   4.339616E+00   4.337580E+00   4.335090E+00   4.303187E+00   4.281089E+00   4.231676E+00   4.189695E+00   4.155483E+00   4.129982E+00   4.139022E+00   4.185480E+00   4.259090E+00   4.341151E+00   4.394209E+00   4.415783E+00   4.386204E+00   4.323427E+00   4.237107E+00   4.156104E+00   4.092015E+00   4.036557E+00
   3.901836E+00   3.809980E+00   3.713265E+00   3.630488E+00   3.558833E+00   3.493315E+00   3.438426E+00   3.386977E+00   3.350442E+00   3.289129E+00   3.216775E+00   3.121972E+00   3.023850E+00   2.923068E+00   2.831712E+00   2.753551E+00   2.702140E+00   2.679175E+00   2.700228E+00   2.742991E+00   2.818060E+00   2.926919E+00   3.056608E+00   3.230592E+00   3.438657E+00   3.675735E+00   3.932849E+00   4.187892E+00   4.435552E+00   4.642098E+00   4.792476E+00   4.872590E+00   4.908963E+00   4.864848E+00   4.746935E+00   4.554333E+00   4.324193E+00   4.030523E+00   3.759375E+00   3.508988E+00   3.314339E+00   3.156895E+00   3.022945E+00   2.904006E+00   2.799940E+00   2.721645E+00   2.671422E+00   2.639281E+00   2.636868E+00   2.670484E+00   2.738840E+00   2.823036E+00   2.910120E+00   2.960610E+00   2.976168E+00   2.960306E+00   2.945488E+00   2.944850E+00   2.982911E+00   3.057553E+00   3.184353E+00   3.341290E+00   3.498580E+00   3.626952E+00   3.702792E+00   3.704999E+00   3.643021E+00   3.534605E+00   3.393781E+00   3.237368E+00   3.073783E+00   2.923797E+00   2.788082E+00   2.690989E+00   2.641474E+00   2.636024E+00   2.665095E+00   2.729192E+00   2.799910E+00   2.866125E+00   2.918097E+00   2.931273E+00   2.906112E+00   2.851651E+00   2.781739E+00   2.704973E+00   2.636684E+00   2.599262E+00   2.599188E+00   2.653812E+00   2.769718E+00   2.935684E+00   3.119146E+00   3.298587E+00   3.442038E+00   3.518066E+00   3.533997E+00   3.508361E+00   3.444433E+00   3.340452E+00   3.192411E+00   3.012750E+00   2.849164E+00   2.706455E+00   2.596009E+00   2.518636E+00   2.464192E+00   2.428208E+00   2.404533E+00   2.406749E+00   2.422098E+00   2.448448E+00   2.486576E+00   2.553167E+00   2.621710E+00   2.698091E+00   2.789671E+00   2.883110E+00   3.000462E+00   3.141065E+00   3.319885E+00   3.524076E+00   3.753636E+00   3.991755E+00   4.188030E+00   4.355714E+00   4.461519E+00   4.499883E+00   4.505804E+00   4.485231E+00   4.419281E+00   4.310058E+00   4.154987E+00   4.002077E+00   3.840860E+00   3.702239E+00   3.601451E+00   3.566125E+00   3.585242E+00   3.674854E+00   3.811780E+00   4.004320E+00   4.233120E+00   4.505730E+00   4.817054E+00   5.151947E+00   5.489693E+00   5.837249E+00   6.113379E+00   6.268890E+00   6.251400E+00   6.082090E+00   5.759387E+00   5.355723E+00   4.928274E+00   4.505119E+00   4.099473E+00   3.720831E+00   3.369094E+00   3.066820E+00   2.811584E+00   2.601545E+00   2.445972E+00   2.332830E+00   2.271170E+00   2.255416E+00   2.288811E+00   2.376819E+00   2.523982E+00   2.716063E+00   2.945554E+00   3.191549E+00   3.443955E+00   3.689638E+00   3.913952E+00   4.080451E+00   4.193183E+00   4.246972E+00   4.279676E+00   4.268607E+00   4.248063E+00   4.206833E+00   4.172860E+00   4.135459E+00   4.108330E+00   4.081633E+00   4.088905E+00   4.123176E+00   4.194024E+00   4.301463E+00   4.424138E+00   4.541595E+00   4.623377E+00   4.634165E+00   4.598137E+00   4.522723E+00   4.414644E+00   4.300256E+00   4.189167E+00   4.089335E+00
   3.927771E+00   3.860616E+00   3.788620E+00   3.723195E+00   3.643714E+00   3.575068E+00   3.507177E+00   3.460157E+00   3.412631E+00   3.347743E+00   3.263079E+00   3.164378E+00   3.053164E+00   2.956516E+00   2.865206E+00   2.791749E+00   2.733710E+00   2.716639E+00   2.735114E+00   2.798367E+00   2.882081E+00   2.998071E+00   3.128294E+00   3.293340E+00   3.480683E+00   3.681479E+00   3.901706E+00   4.138321E+00   4.358628E+00   4.559433E+00   4.716360E+00   4.837379E+00   4.929141E+00   4.954818E+00   4.886909E+00   4.749548E+00   4.529422E+00   4.227371E+00   3.908630E+00   3.604579E+00   3.351361E+00   3.144942E+00   2.971140E+00   2.837367E+00   2.728570E+00   2.643039E+00   2.594043E+00   2.572793E+00   2.599967E+00   2.667190E+00   2.776290E+00   2.913519E+00   3.051642E+00   3.166043E+00   3.228043E+00   3.263857E+00   3.281186E+00   3.301113E+00   3.350921E+00   3.445594E+00   3.576475E+00   3.732205E+00   3.894216E+00   4.002459E+00   4.042408E+00   3.995182E+00   3.872496E+00   3.710737E+00   3.517606E+00   3.313016E+00   3.125032E+00   2.946091E+00   2.803031E+00   2.694189E+00   2.638670E+00   2.633937E+00   2.659320E+00   2.716532E+00   2.789708E+00   2.847354E+00   2.889534E+00   2.890267E+00   2.852705E+00   2.789814E+00   2.706598E+00   2.613734E+00   2.526607E+00   2.465368E+00   2.452336E+00   2.497868E+00   2.601725E+00   2.760797E+00   2.955794E+00   3.156183E+00   3.335016E+00   3.460566E+00   3.530367E+00   3.550299E+00   3.522030E+00   3.436486E+00   3.299270E+00   3.143635E+00   2.984186E+00   2.847457E+00   2.743508E+00   2.675164E+00   2.635855E+00   2.605901E+00   2.594569E+00   2.592050E+00   2.609164E+00   2.639228E+00   2.691179E+00   2.750635E+00   2.812861E+00   2.870548E+00   2.921238E+00   2.980900E+00   3.060507E+00   3.169370E+00   3.313446E+00   3.483002E+00   3.679486E+00   3.872041E+00   4.036584E+00   4.143221E+00   4.185637E+00   4.176501E+00   4.163694E+00   4.130189E+00   4.092331E+00   4.018139E+00   3.917758E+00   3.791656E+00   3.648486E+00   3.509459E+00   3.405144E+00   3.358449E+00   3.389092E+00   3.479996E+00   3.632488E+00   3.854307E+00   4.108025E+00   4.401044E+00   4.727272E+00   5.081763E+00   5.440341E+00   5.796912E+00   6.092338E+00   6.275015E+00   6.310614E+00   6.158425E+00   5.832658E+00   5.430279E+00   4.999061E+00   4.559289E+00   4.133796E+00   3.732476E+00   3.385969E+00   3.081320E+00   2.821825E+00   2.607002E+00   2.437707E+00   2.311831E+00   2.234763E+00   2.206951E+00   2.236255E+00   2.315627E+00   2.456603E+00   2.644781E+00   2.874147E+00   3.128726E+00   3.389888E+00   3.645087E+00   3.861756E+00   4.030480E+00   4.143161E+00   4.209505E+00   4.220491E+00   4.216253E+00   4.168199E+00   4.131454E+00   4.084133E+00   4.053776E+00   4.027765E+00   4.034708E+00   4.066175E+00   4.130848E+00   4.238175E+00   4.388997E+00   4.553502E+00   4.688134E+00   4.764743E+00   4.776644E+00   4.729560E+00   4.654830E+00   4.559202E+00   4.432579E+00   4.291533E+00   4.145092E+00
   3.979216E+00   3.956050E+00   3.916050E+00   3.846109E+00   3.787214E+00   3.702260E+00   3.640405E+00   3.585269E+00   3.538612E+00   3.469914E+00   3.374713E+00   3.260835E+00   3.137187E+00   3.032768E+00   2.943190E+00   2.871851E+00   2.819882E+00   2.791130E+00   2.820425E+00   2.883909E+00   2.984865E+00   3.110873E+00   3.237503E+00   3.391991E+00   3.557299E+00   3.740502E+00   3.941772E+00   4.131011E+00   4.331249E+00   4.529119E+00   4.722307E+00   4.876340E+00   4.994060E+00   5.068260E+00   5.074827E+00   4.980633E+00   4.779361E+00   4.475960E+00   4.124303E+00   3.773998E+00   3.476589E+00   3.219644E+00   3.016564E+00   2.855425E+00   2.731843E+00   2.650938E+00   2.602422E+00   2.606586E+00   2.659046E+00   2.753799E+00   2.901614E+00   3.083289E+00   3.264344E+00   3.424981E+00   3.535264E+00   3.600285E+00   3.640351E+00   3.670332E+00   3.741621E+00   3.854748E+00   4.002933E+00   4.173448E+00   4.335603E+00   4.434251E+00   4.437325E+00   4.350932E+00   4.188351E+00   3.979487E+00   3.749169E+00   3.519994E+00   3.295360E+00   3.104261E+00   2.943627E+00   2.832551E+00   2.759793E+00   2.730263E+00   2.735274E+00   2.771801E+00   2.823805E+00   2.866673E+00   2.880191E+00   2.862507E+00   2.808199E+00   2.741509E+00   2.650920E+00   2.550448E+00   2.459718E+00   2.393642E+00   2.381894E+00   2.432112E+00   2.542428E+00   2.698778E+00   2.900264E+00   3.110037E+00   3.315888E+00   3.493778E+00   3.620330E+00   3.673617E+00   3.670106E+00   3.599070E+00   3.483427E+00   3.343505E+00   3.199838E+00   3.071588E+00   2.981626E+00   2.925691E+00   2.895458E+00   2.879108E+00   2.873646E+00   2.872910E+00   2.885132E+00   2.914136E+00   2.965113E+00   3.022316E+00   3.066144E+00   3.108261E+00   3.122030E+00   3.138891E+00   3.170447E+00   3.220984E+00   3.308417E+00   3.420876E+00   3.553328E+00   3.683100E+00   3.774547E+00   3.814335E+00   3.802721E+00   3.771645E+00   3.744320E+00   3.737052E+00   3.735857E+00   3.736433E+00   3.699511E+00   3.620491E+00   3.521505E+00   3.398447E+00   3.291967E+00   3.229785E+00   3.249813E+00   3.343614E+00   3.512851E+00   3.753777E+00   4.030493E+00   4.332784E+00   4.645729E+00   4.978550E+00   5.325668E+00   5.670295E+00   5.978251E+00   6.190187E+00   6.239983E+00   6.110640E+00   5.835059E+00   5.473080E+00   5.047774E+00   4.617891E+00   4.185812E+00   3.798609E+00   3.451833E+00   3.153788E+00   2.900023E+00   2.673595E+00   2.492827E+00   2.357683E+00   2.273135E+00   2.236991E+00   2.258657E+00   2.327837E+00   2.456198E+00   2.632774E+00   2.854808E+00   3.111885E+00   3.386725E+00   3.643800E+00   3.849374E+00   4.000432E+00   4.092612E+00   4.131981E+00   4.142905E+00   4.116449E+00   4.074829E+00   4.032756E+00   3.995687E+00   3.960623E+00   3.950255E+00   3.955795E+00   4.001321E+00   4.076781E+00   4.203698E+00   4.372952E+00   4.537828E+00   4.676239E+00   4.759678E+00   4.768670E+00   4.728420E+00   4.656147E+00   4.567013E+00   4.446644E+00   4.311346E+00   4.159045E+00
   4.043875E+00   4.084118E+00   4.071372E+00   4.037229E+00   3.960870E+00   3.885068E+00   3.813622E+00   3.759522E+00   3.693082E+00   3.604201E+00   3.480194E+00   3.350329E+00   3.221532E+00   3.114335E+00   3.027906E+00   2.968756E+00   2.913913E+00   2.901242E+00   2.924689E+00   2.989446E+00   3.088587E+00   3.214879E+00   3.342543E+00   3.479169E+00   3.627783E+00   3.797944E+00   3.966277E+00   4.148239E+00   4.342328E+00   4.552264E+00   4.756772E+00   4.955111E+00   5.105599E+00   5.218009E+00   5.244319E+00   5.180647E+00   5.009656E+00   4.736904E+00   4.381152E+00   4.004349E+00   3.652236E+00   3.364189E+00   3.127111E+00   2.945450E+00   2.819960E+00   2.736140E+00   2.707333E+00   2.717047E+00   2.787473E+00   2.909158E+00   3.080515E+00   3.272364E+00   3.458112E+00   3.628309E+00   3.747891E+00   3.826082E+00   3.874280E+00   3.940897E+00   4.035927E+00   4.175417E+00   4.366407E+00   4.565710E+00   4.748662E+00   4.855627E+00   4.847133E+00   4.723555E+00   4.529793E+00   4.300941E+00   4.056545E+00   3.805270E+00   3.577529E+00   3.378322E+00   3.201456E+00   3.065332E+00   2.967708E+00   2.905447E+00   2.885772E+00   2.880320E+00   2.895917E+00   2.904558E+00   2.899639E+00   2.858789E+00   2.798244E+00   2.723804E+00   2.642599E+00   2.554825E+00   2.475431E+00   2.430342E+00   2.431085E+00   2.496637E+00   2.613252E+00   2.781635E+00   2.975501E+00   3.192925E+00   3.411731E+00   3.607567E+00   3.762868E+00   3.837452E+00   3.842366E+00   3.784192E+00   3.672180E+00   3.546382E+00   3.415488E+00   3.298297E+00   3.212055E+00   3.164217E+00   3.148471E+00   3.143284E+00   3.147585E+00   3.159515E+00   3.178524E+00   3.207208E+00   3.259893E+00   3.310676E+00   3.340196E+00   3.345621E+00   3.324336E+00   3.287678E+00   3.258147E+00   3.244840E+00   3.259632E+00   3.297865E+00   3.354279E+00   3.410001E+00   3.442250E+00   3.444221E+00   3.415191E+00   3.382293E+00   3.375138E+00   3.390346E+00   3.445028E+00   3.502962E+00   3.535783E+00   3.519302E+00   3.462171E+00   3.369781E+00   3.284582E+00   3.228003E+00   3.243086E+00   3.322553E+00   3.491042E+00   3.741703E+00   4.034375E+00   4.338817E+00   4.636523E+00   4.931889E+00   5.240050E+00   5.557305E+00   5.847128E+00   6.060077E+00   6.143783E+00   6.063555E+00   5.840782E+00   5.502427E+00   5.103220E+00   4.675992E+00   4.270227E+00   3.886562E+00   3.560611E+00   3.278536E+00   3.028841E+00   2.794197E+00   2.601478E+00   2.452973E+00   2.352686E+00   2.309711E+00   2.314729E+00   2.383197E+00   2.500427E+00   2.669760E+00   2.872740E+00   3.123554E+00   3.385921E+00   3.628193E+00   3.815601E+00   3.944524E+00   4.012354E+00   4.036057E+00   4.032135E+00   3.990496E+00   3.961144E+00   3.941366E+00   3.915314E+00   3.893735E+00   3.876247E+00   3.878949E+00   3.914579E+00   3.979607E+00   4.089094E+00   4.229952E+00   4.382472E+00   4.501553E+00   4.582081E+00   4.594598E+00   4.576171E+00   4.527813E+00   4.442916E+00   4.360893E+00   4.255149E+00   4.139268E+00
   4.118098E+00   4.210658E+00   4.262537E+00   4.249854E+00   4.208344E+00   4.125010E+00   4.065075E+00   3.997323E+00   3.909227E+00   3.779633E+00   3.618819E+00   3.459086E+00   3.315503E+00   3.196894E+00   3.115933E+00   3.068445E+00   3.036466E+00   3.024756E+00   3.037911E+00   3.091506E+00   3.171022E+00   3.276761E+00   3.404126E+00   3.532536E+00   3.672950E+00   3.817068E+00   3.980642E+00   4.160161E+00   4.384016E+00   4.596907E+00   4.814305E+00   5.006386E+00   5.181984E+00   5.289817E+00   5.336408E+00   5.285702E+00   5.156668E+00   4.925549E+00   4.612076E+00   4.239832E+00   3.877998E+00   3.554711E+00   3.295527E+00   3.101531E+00   2.960143E+00   2.877528E+00   2.847183E+00   2.876894E+00   2.957882E+00   3.078411E+00   3.238296E+00   3.413737E+00   3.595392E+00   3.736286E+00   3.842566E+00   3.909754E+00   3.973121E+00   4.057776E+00   4.187202E+00   4.375959E+00   4.611317E+00   4.858537E+00   5.050752E+00   5.164052E+00   5.161273E+00   5.043468E+00   4.842208E+00   4.609667E+00   4.365392E+00   4.127102E+00   3.916296E+00   3.719666E+00   3.534470E+00   3.381580E+00   3.237928E+00   3.137690E+00   3.067670E+00   3.019693E+00   2.986161E+00   2.955312E+00   2.920528E+00   2.866971E+00   2.804358E+00   2.741942E+00   2.669195E+00   2.616509E+00   2.575832E+00   2.565676E+00   2.601028E+00   2.681563E+00   2.828590E+00   3.010354E+00   3.222670E+00   3.449609E+00   3.653100E+00   3.812492E+00   3.942602E+00   4.019951E+00   4.008573E+00   3.951825E+00   3.841132E+00   3.725872E+00   3.609628E+00   3.505886E+00   3.425306E+00   3.372850E+00   3.342311E+00   3.343434E+00   3.353909E+00   3.379490E+00   3.413013E+00   3.449135E+00   3.492015E+00   3.512839E+00   3.510966E+00   3.485905E+00   3.432685E+00   3.358307E+00   3.270249E+00   3.189887E+00   3.132694E+00   3.100312E+00   3.091345E+00   3.086318E+00   3.077452E+00   3.064480E+00   3.046292E+00   3.046623E+00   3.069927E+00   3.129125E+00   3.219876E+00   3.329838E+00   3.413339E+00   3.460788E+00   3.454049E+00   3.415820E+00   3.354604E+00   3.319678E+00   3.333816E+00   3.425015E+00   3.583399E+00   3.818085E+00   4.091006E+00   4.376189E+00   4.642731E+00   4.915117E+00   5.189198E+00   5.481954E+00   5.739463E+00   5.937201E+00   6.021355E+00   5.969799E+00   5.783886E+00   5.507295E+00   5.158989E+00   4.774539E+00   4.399267E+00   4.037649E+00   3.708319E+00   3.425739E+00   3.169770E+00   2.936785E+00   2.730110E+00   2.577302E+00   2.473379E+00   2.423615E+00   2.431415E+00   2.486118E+00   2.602600E+00   2.752812E+00   2.949690E+00   3.173768E+00   3.409948E+00   3.627717E+00   3.804854E+00   3.901877E+00   3.956035E+00   3.969293E+00   3.953941E+00   3.918319E+00   3.893628E+00   3.873358E+00   3.862905E+00   3.836897E+00   3.818743E+00   3.803237E+00   3.816648E+00   3.858181E+00   3.934781E+00   4.038574E+00   4.145963E+00   4.244596E+00   4.295982E+00   4.321213E+00   4.321182E+00   4.298522E+00   4.258541E+00   4.217350E+00   4.165501E+00   4.084857E+00