# LPF package for  MODFLOW-2005, generated by Flopy.
         0    -1E+30         0  
         0
         0
   1.000000E+00
         0
         0
INTERNAL               1 (200E15.6) -1 #hk layer 1                    
   3.962816E+00   3.935318E+00   3.904691E+00   3.862699E+00   3.833970E+00   3.813562E+00   3.802219E+00   3.789485E+00   3.787879E+00   3.761621E+00   3.732186E+00   3.689151E+00   3.641904E+00   3.585479E+00   3.527864E+00   3.488943E+00   3.471418E+00   3.475723E+00   3.487972E+00   3.515066E+00   3.555571E+00   3.610291E+00   3.676315E+00   3.769817E+00   3.856496E+00   3.942676E+00   4.024044E+00   4.102617E+00   4.173363E+00   4.228860E+00   4.263452E+00   4.278130E+00   4.262443E+00   4.208716E+00   4.144085E+00   4.060998E+00   3.983610E+00   3.902448E+00   3.837281E+00   3.780371E+00   3.734325E+00   3.704978E+00   3.677608E+00   3.641407E+00   3.612085E+00   3.596154E+00   3.597791E+00   3.596357E+00   3.596975E+00   3.587608E+00   3.565828E+00   3.538431E+00   3.502579E+00   3.460905E+00   3.425177E+00   3.380437E+00   3.348127E+00   3.330698E+00   3.342667E+00   3.384855E+00   3.437962E+00   3.508724E+00   3.589063E+00   3.667616E+00   3.724980E+00   3.774248E+00   3.803835E+00   3.824076E+00   3.826031E+00   3.806094E+00   3.768670E+00   3.724291E+00   3.683929E+00   3.658888E+00   3.654801E+00   3.647255E+00   3.655539E+00   3.651860E+00   3.644681E+00   3.635271E+00   3.635878E+00   3.623861E+00   3.611522E+00   3.599569E+00   3.583164E+00   3.572304E+00   3.570070E+00   3.582381E+00   3.598341E+00   3.649135E+00   3.715014E+00   3.791029E+00   3.863413E+00   3.918460E+00   3.938191E+00   3.934410E+00   3.911907E+00   3.868268E+00   3.820287E+00   3.755320E+00   3.688877E+00   3.614426E+00   3.538873E+00   3.483568E+00   3.436828E+00   3.398625E+00   3.375444E+00   3.354339E+00   3.352388E+00   3.340863E+00   3.328591E+00   3.308896E+00   3.299307E+00   3.304984E+00   3.313825E+00   3.343977E+00   3.403384E+00   3.481890E+00   3.577404E+00   3.681881E+00   3.773119E+00   3.873363E+00   3.962990E+00   4.047300E+00   4.127003E+00   4.192492E+00   4.268079E+00   4.325026E+00   4.356627E+00   4.372893E+00   4.360060E+00   4.335405E+00   4.308193E+00   4.267408E+00   4.212792E+00   4.168880E+00   4.110884E+00   4.072166E+00   4.050283E+00   4.051430E+00   4.074136E+00   4.106708E+00   4.158696E+00   4.213213E+00   4.279408E+00   4.348994E+00   4.431273E+00   4.525066E+00   4.590602E+00   4.616837E+00   4.595758E+00   4.545271E+00   4.457821E+00   4.370903E+00   4.269233E+00   4.163995E+00   4.064022E+00   3.962109E+00   3.866503E+00   3.760715E+00   3.673524E+00   3.573025E+00   3.493774E+00   3.439955E+00   3.401815E+00   3.385039E+00   3.389084E+00   3.415159E+00   3.461358E+00   3.544871E+00   3.647733E+00   3.756837E+00   3.870599E+00   3.969616E+00   4.043497E+00   4.094760E+00   4.129356E+00   4.160761E+00   4.187260E+00   4.202300E+00   4.222105E+00   4.238183E+00   4.251559E+00   4.250243E+00   4.238746E+00   4.202034E+00   4.152940E+00   4.089790E+00   4.031930E+00   3.993509E+00   3.975454E+00   3.977297E+00   3.985220E+00   4.000252E+00   4.005089E+00   4.010147E+00   4.009840E+00   3.991098E+00   3.983118E+00   3.979250E+00
   3.931140E+00   3.887825E+00   3.829926E+00   3.762771E+00   3.694741E+00   3.655737E+00   3.623762E+00   3.600006E+00   3.585758E+00   3.569356E+00   3.518485E+00   3.459236E+00   3.366552E+00   3.277905E+00   3.189296E+00   3.124578E+00   3.088334E+00   3.089662E+00   3.109069E+00   3.146116E+00   3.207089E+00   3.294945E+00   3.408988E+00   3.546267E+00   3.701382E+00   3.869475E+00   4.044259E+00   4.212939E+00   4.363889E+00   4.476800E+00   4.542718E+00   4.578480E+00   4.539403E+00   4.449948E+00   4.313817E+00   4.166916E+00   4.016872E+00   3.866410E+00   3.721190E+00   3.617173E+00   3.532005E+00   3.477491E+00   3.426523E+00   3.378039E+00   3.326799E+00   3.299277E+00   3.291287E+00   3.285414E+00   3.282744E+00   3.269373E+00   3.241855E+00   3.198022E+00   3.151861E+00   3.091546E+00   3.019158E+00   2.952985E+00   2.904723E+00   2.881376E+00   2.896917E+00   2.955936E+00   3.048401E+00   3.177575E+00   3.316603E+00   3.439546E+00   3.541070E+00   3.620395E+00   3.659967E+00   3.671049E+00   3.654672E+00   3.607907E+00   3.536934E+00   3.463172E+00   3.394959E+00   3.346732E+00   3.318380E+00   3.305882E+00   3.306935E+00   3.317453E+00   3.330956E+00   3.344876E+00   3.346399E+00   3.339898E+00   3.320516E+00   3.291776E+00   3.255758E+00   3.224312E+00   3.214466E+00   3.223433E+00   3.257119E+00   3.326931E+00   3.449774E+00   3.571832E+00   3.708325E+00   3.808427E+00   3.861153E+00   3.866175E+00   3.817754E+00   3.748422E+00   3.659148E+00   3.553368E+00   3.436338E+00   3.309484E+00   3.182944E+00   3.082168E+00   3.002845E+00   2.939635E+00   2.899091E+00   2.875642E+00   2.857909E+00   2.842678E+00   2.823169E+00   2.810553E+00   2.814545E+00   2.824038E+00   2.855781E+00   2.913267E+00   2.996983E+00   3.108395E+00   3.251747E+00   3.408225E+00   3.570981E+00   3.748532E+00   3.919952E+00   4.086900E+00   4.236255E+00   4.381695E+00   4.511546E+00   4.607946E+00   4.648503E+00   4.658937E+00   4.638947E+00   4.593427E+00   4.518878E+00   4.415398E+00   4.309291E+00   4.212235E+00   4.139835E+00   4.086451E+00   4.073540E+00   4.088401E+00   4.138780E+00   4.222629E+00   4.297297E+00   4.406905E+00   4.525883E+00   4.681041E+00   4.854709E+00   5.038011E+00   5.182714E+00   5.230471E+00   5.195460E+00   5.072652E+00   4.905182E+00   4.710400E+00   4.497357E+00   4.284619E+00   4.077175E+00   3.883496E+00   3.689415E+00   3.513061E+00   3.339026E+00   3.194842E+00   3.066968E+00   2.986080E+00   2.935635E+00   2.910798E+00   2.919043E+00   2.971598E+00   3.068284E+00   3.207972E+00   3.373982E+00   3.558222E+00   3.746556E+00   3.909704E+00   4.045652E+00   4.142271E+00   4.213246E+00   4.270619E+00   4.312952E+00   4.347777E+00   4.379014E+00   4.414348E+00   4.424640E+00   4.419828E+00   4.381676E+00   4.328356E+00   4.247456E+00   4.152752E+00   4.068161E+00   4.004716E+00   4.003824E+00   4.018715E+00   4.044726E+00   4.059449E+00   4.057858E+00   4.054642E+00   4.036716E+00   4.011621E+00   3.986603E+00   3.982258E+00
   3.911504E+00   3.831622E+00   3.749278E+00   3.665529E+00   3.598647E+00   3.527758E+00   3.482337E+00   3.448462E+00   3.426666E+00   3.390154E+00   3.342608E+00   3.261890E+00   3.174917E+00   3.070836E+00   2.974876E+00   2.897519E+00   2.853503E+00   2.846168E+00   2.866383E+00   2.912638E+00   2.976603E+00   3.079272E+00   3.215840E+00   3.387604E+00   3.577024E+00   3.793340E+00   4.037930E+00   4.276523E+00   4.495347E+00   4.657361E+00   4.768192E+00   4.801311E+00   4.762696E+00   4.652566E+00   4.500463E+00   4.292866E+00   4.082235E+00   3.863089E+00   3.679897E+00   3.528499E+00   3.415848E+00   3.325111E+00   3.258902E+00   3.194260E+00   3.126669E+00   3.063421E+00   3.038799E+00   3.013758E+00   3.011808E+00   3.010778E+00   3.004237E+00   2.979063E+00   2.952973E+00   2.897675E+00   2.834605E+00   2.772560E+00   2.717784E+00   2.691844E+00   2.709729E+00   2.779162E+00   2.893687E+00   3.038585E+00   3.196934E+00   3.347797E+00   3.465265E+00   3.536726E+00   3.565655E+00   3.554963E+00   3.505566E+00   3.429839E+00   3.323897E+00   3.222791E+00   3.129898E+00   3.063165E+00   3.021229E+00   3.000978E+00   3.008907E+00   3.033724E+00   3.074871E+00   3.111394E+00   3.131362E+00   3.131764E+00   3.116941E+00   3.074462E+00   3.034620E+00   2.993598E+00   2.965249E+00   2.958024E+00   2.984830E+00   3.067064E+00   3.196663E+00   3.362504E+00   3.524216E+00   3.668247E+00   3.739183E+00   3.748836E+00   3.708122E+00   3.630082E+00   3.534075E+00   3.403720E+00   3.256101E+00   3.102108E+00   2.953320E+00   2.817495E+00   2.714608E+00   2.633996E+00   2.576863E+00   2.543803E+00   2.526014E+00   2.512402E+00   2.502472E+00   2.501252E+00   2.520568E+00   2.552477E+00   2.595337E+00   2.671935E+00   2.769094E+00   2.892450E+00   3.055973E+00   3.236885E+00   3.429751E+00   3.652745E+00   3.877917E+00   4.097684E+00   4.299275E+00   4.472118E+00   4.632975E+00   4.738334E+00   4.800251E+00   4.799222E+00   4.754557E+00   4.666343E+00   4.541212E+00   4.402726E+00   4.262089E+00   4.144639E+00   4.046706E+00   4.001813E+00   3.997462E+00   4.042668E+00   4.127870E+00   4.226815E+00   4.359307E+00   4.514954E+00   4.710795E+00   4.934601E+00   5.204836E+00   5.455179E+00   5.643195E+00   5.717154E+00   5.675090E+00   5.512535E+00   5.265576E+00   4.981204E+00   4.677331E+00   4.377610E+00   4.084448E+00   3.800836E+00   3.528818E+00   3.281062E+00   3.065345E+00   2.875187E+00   2.742937E+00   2.651867E+00   2.600065E+00   2.586535E+00   2.616611E+00   2.692602E+00   2.815925E+00   2.983699E+00   3.191472E+00   3.408113E+00   3.631697E+00   3.835815E+00   4.016006E+00   4.145782E+00   4.243371E+00   4.309129E+00   4.361117E+00   4.399638E+00   4.422586E+00   4.430032E+00   4.436913E+00   4.415124E+00   4.373644E+00   4.305987E+00   4.231276E+00   4.166989E+00   4.107258E+00   4.082908E+00   4.095272E+00   4.140230E+00   4.191022E+00   4.206012E+00   4.195994E+00   4.157846E+00   4.116326E+00   4.075833E+00   4.039117E+00   4.009545E+00
   3.896446E+00   3.808178E+00   3.706816E+00   3.617319E+00   3.544291E+00   3.483605E+00   3.426641E+00   3.386560E+00   3.348808E+00   3.305259E+00   3.237986E+00   3.162409E+00   3.060758E+00   2.958966E+00   2.861366E+00   2.788467E+00   2.738292E+00   2.722356E+00   2.739101E+00   2.785759E+00   2.847167E+00   2.944354E+00   3.081328E+00   3.263897E+00   3.476397E+00   3.718194E+00   3.983570E+00   4.264835E+00   4.516630E+00   4.716437E+00   4.850456E+00   4.915794E+00   4.877800E+00   4.796885E+00   4.627209E+00   4.407642E+00   4.159392E+00   3.904263E+00   3.671078E+00   3.491964E+00   3.347418E+00   3.228645E+00   3.124276E+00   3.027976E+00   2.943389E+00   2.872694E+00   2.826788E+00   2.791080E+00   2.786277E+00   2.799798E+00   2.824657E+00   2.847660E+00   2.863950E+00   2.863205E+00   2.829966E+00   2.784635E+00   2.741448E+00   2.725952E+00   2.748737E+00   2.821437E+00   2.941087E+00   3.095461E+00   3.256090E+00   3.401340E+00   3.504448E+00   3.551089E+00   3.540946E+00   3.483095E+00   3.396904E+00   3.283663E+00   3.157959E+00   3.024948E+00   2.914579E+00   2.825089E+00   2.781460E+00   2.772303E+00   2.795525E+00   2.836034E+00   2.895853E+00   2.947727E+00   2.992438E+00   3.008461E+00   2.996207E+00   2.955484E+00   2.894515E+00   2.837296E+00   2.787046E+00   2.764630E+00   2.784224E+00   2.852178E+00   2.985152E+00   3.145787E+00   3.331898E+00   3.492373E+00   3.601258E+00   3.640847E+00   3.616882E+00   3.549004E+00   3.454036E+00   3.323952E+00   3.169396E+00   2.996030E+00   2.833061E+00   2.695044E+00   2.574248E+00   2.488154E+00   2.434254E+00   2.393827E+00   2.381215E+00   2.367178E+00   2.370773E+00   2.385319E+00   2.416029E+00   2.466266E+00   2.530061E+00   2.616330E+00   2.714489E+00   2.835610E+00   2.981935E+00   3.154978E+00   3.350174E+00   3.571246E+00   3.813269E+00   4.059001E+00   4.280505E+00   4.463974E+00   4.608559E+00   4.703732E+00   4.741210E+00   4.728577E+00   4.661808E+00   4.551224E+00   4.399704E+00   4.235792E+00   4.082080E+00   3.944386E+00   3.856236E+00   3.807108E+00   3.816108E+00   3.887456E+00   4.004961E+00   4.149792E+00   4.328971E+00   4.553355E+00   4.811148E+00   5.114264E+00   5.422015E+00   5.737079E+00   5.978598E+00   6.084627E+00   6.043735E+00   5.855652E+00   5.551025E+00   5.188402E+00   4.810180E+00   4.451848E+00   4.092553E+00   3.748484E+00   3.424946E+00   3.138374E+00   2.889215E+00   2.700485E+00   2.550613E+00   2.445066E+00   2.391466E+00   2.380224E+00   2.412739E+00   2.497527E+00   2.634026E+00   2.831173E+00   3.049930E+00   3.291891E+00   3.531865E+00   3.766438E+00   3.957979E+00   4.113005E+00   4.209187E+00   4.281378E+00   4.318911E+00   4.339014E+00   4.336942E+00   4.334398E+00   4.302438E+00   4.280285E+00   4.230825E+00   4.188811E+00   4.154583E+00   4.129077E+00   4.138125E+00   4.184602E+00   4.258242E+00   4.340351E+00   4.393470E+00   4.415119E+00   4.385627E+00   4.322948E+00   4.236730E+00   4.155827E+00   4.091835E+00   4.036467E+00
   3.901822E+00   3.809956E+00   3.713237E+00   3.630465E+00   3.558824E+00   3.493326E+00   3.438470E+00   3.387053E+00   3.350546E+00   3.289260E+00   3.216919E+00   3.122121E+00   3.023988E+00   2.923186E+00   2.831800E+00   2.753606E+00   2.702156E+00   2.679154E+00   2.700173E+00   2.742903E+00   2.817942E+00   2.926772E+00   3.056434E+00   3.230391E+00   3.438428E+00   3.675480E+00   3.932565E+00   4.187580E+00   4.435217E+00   4.641740E+00   4.792097E+00   4.872188E+00   4.908528E+00   4.864376E+00   4.746427E+00   4.553792E+00   4.323626E+00   4.029942E+00   3.758793E+00   3.508412E+00   3.313772E+00   3.156343E+00   3.022413E+00   2.903501E+00   2.799468E+00   2.721210E+00   2.671028E+00   2.638931E+00   2.636564E+00   2.670221E+00   2.738614E+00   2.822842E+00   2.909952E+00   2.960464E+00   2.976036E+00   2.960182E+00   2.945364E+00   2.944724E+00   2.982782E+00   3.057424E+00   3.184231E+00   3.341182E+00   3.498493E+00   3.626896E+00   3.702771E+00   3.705017E+00   3.643075E+00   3.534689E+00   3.393893E+00   3.237503E+00   3.073932E+00   2.923953E+00   2.788238E+00   2.691140E+00   2.641618E+00   2.636165E+00   2.665241E+00   2.729352E+00   2.800087E+00   2.866319E+00   2.918312E+00   2.931510E+00   2.906369E+00   2.851927E+00   2.782027E+00   2.705267E+00   2.636981E+00   2.599567E+00   2.599505E+00   2.654151E+00   2.770089E+00   2.936098E+00   3.119607E+00   3.299095E+00   3.442589E+00   3.518649E+00   3.534597E+00   3.508972E+00   3.445043E+00   3.341046E+00   3.192977E+00   3.013277E+00   2.849655E+00   2.706916E+00   2.596446E+00   2.519055E+00   2.464598E+00   2.428604E+00   2.404916E+00   2.407123E+00   2.422459E+00   2.448797E+00   2.486910E+00   2.553485E+00   2.622004E+00   2.698359E+00   2.789908E+00   2.883317E+00   3.000638E+00   3.141209E+00   3.319998E+00   3.524153E+00   3.753670E+00   3.991732E+00   4.187937E+00   4.355537E+00   4.461248E+00   4.499516E+00   4.505349E+00   4.484697E+00   4.418684E+00   4.309410E+00   4.154317E+00   4.001405E+00   3.840204E+00   3.701612E+00   3.600864E+00   3.565580E+00   3.584743E+00   3.674399E+00   3.811378E+00   4.003965E+00   4.232809E+00   4.505461E+00   4.816819E+00   5.151731E+00   5.489480E+00   5.837010E+00   6.113102E+00   6.268554E+00   6.250995E+00   6.081617E+00   5.758854E+00   5.355148E+00   4.927672E+00   4.504508E+00   4.098853E+00   3.720208E+00   3.368475E+00   3.066212E+00   2.810990E+00   2.600964E+00   2.445400E+00   2.332264E+00   2.270600E+00   2.254834E+00   2.288211E+00   2.376194E+00   2.523323E+00   2.715366E+00   2.944819E+00   3.190782E+00   3.443165E+00   3.688835E+00   3.913151E+00   4.079665E+00   4.192415E+00   4.246214E+00   4.278912E+00   4.267818E+00   4.247234E+00   4.205953E+00   4.171920E+00   4.134461E+00   4.107278E+00   4.080544E+00   4.087790E+00   4.122045E+00   4.192885E+00   4.300333E+00   4.423036E+00   4.540543E+00   4.622398E+00   4.633289E+00   4.597378E+00   4.522094E+00   4.414149E+00   4.299891E+00   4.188929E+00   4.089216E+00
   3.927758E+00   3.860596E+00   3.788599E+00   3.723178E+00   3.643711E+00   3.575086E+00   3.507222E+00   3.460234E+00   3.412736E+00   3.347870E+00   3.263220E+00   3.164522E+00   3.053292E+00   2.956617E+00   2.865273E+00   2.791776E+00   2.733695E+00   2.716582E+00   2.735020E+00   2.798235E+00   2.881914E+00   2.997875E+00   3.128068E+00   3.293084E+00   3.480404E+00   3.681175E+00   3.901379E+00   4.137971E+00   4.358252E+00   4.559028E+00   4.715920E+00   4.836900E+00   4.928610E+00   4.954232E+00   4.886271E+00   4.748863E+00   4.528706E+00   4.226650E+00   3.907924E+00   3.603901E+00   3.350715E+00   3.144329E+00   2.970563E+00   2.836825E+00   2.728069E+00   2.642580E+00   2.593628E+00   2.572420E+00   2.599639E+00   2.666901E+00   2.776039E+00   2.913301E+00   3.051452E+00   3.165878E+00   3.227900E+00   3.263729E+00   3.281067E+00   3.300999E+00   3.350812E+00   3.445490E+00   3.576385E+00   3.732138E+00   3.894179E+00   4.002464E+00   4.042455E+00   3.995272E+00   3.872625E+00   3.710900E+00   3.517799E+00   3.313233E+00   3.125261E+00   2.946323E+00   2.803259E+00   2.694408E+00   2.638882E+00   2.634143E+00   2.659527E+00   2.716749E+00   2.789942E+00   2.847607E+00   2.889808E+00   2.890560E+00   2.853017E+00   2.790140E+00   2.706931E+00   2.614070E+00   2.526947E+00   2.465714E+00   2.452696E+00   2.498253E+00   2.602145E+00   2.761264E+00   2.956318E+00   3.156767E+00   3.335655E+00   3.461249E+00   3.531080E+00   3.551027E+00   3.522759E+00   3.437201E+00   3.299955E+00   3.144283E+00   2.984795E+00   2.848033E+00   2.744061E+00   2.675704E+00   2.636385E+00   2.606421E+00   2.595079E+00   2.592549E+00   2.609650E+00   2.639701E+00   2.691639E+00   2.751073E+00   2.813269E+00   2.870920E+00   2.921570E+00   2.981191E+00   3.060758E+00   3.169580E+00   3.313613E+00   3.483121E+00   3.679546E+00   3.872031E+00   4.036492E+00   4.143036E+00   4.185358E+00   4.176127E+00   4.163233E+00   4.129653E+00   4.091733E+00   4.017496E+00   3.917088E+00   3.790982E+00   3.647830E+00   3.508833E+00   3.404559E+00   3.357906E+00   3.388592E+00   3.479539E+00   3.632074E+00   3.853931E+00   4.107687E+00   4.400736E+00   4.726993E+00   5.081495E+00   5.440072E+00   5.796619E+00   6.091999E+00   6.274606E+00   6.310133E+00   6.157870E+00   5.832044E+00   5.429623E+00   4.998381E+00   4.558594E+00   4.133096E+00   3.731781E+00   3.385285E+00   3.080647E+00   2.821168E+00   2.606361E+00   2.437079E+00   2.311212E+00   2.234145E+00   2.206325E+00   2.235611E+00   2.314956E+00   2.455894E+00   2.644027E+00   2.873343E+00   3.127876E+00   3.389000E+00   3.644170E+00   3.860829E+00   4.029551E+00   4.142241E+00   4.208585E+00   4.219562E+00   4.215292E+00   4.167200E+00   4.130402E+00   4.083026E+00   4.052608E+00   4.026545E+00   4.033437E+00   4.064866E+00   4.129506E+00   4.236812E+00   4.387631E+00   4.552158E+00   4.686846E+00   4.763544E+00   4.775569E+00   4.728633E+00   4.654060E+00   4.558592E+00   4.432131E+00   4.291240E+00   4.144949E+00
   3.979211E+00   3.956042E+00   3.916039E+00   3.846104E+00   3.787223E+00   3.702286E+00   3.640455E+00   3.585344E+00   3.538711E+00   3.470030E+00   3.374837E+00   3.260956E+00   3.137285E+00   3.032831E+00   2.943211E+00   2.871830E+00   2.819814E+00   2.791019E+00   2.820272E+00   2.883718E+00   2.984637E+00   3.110611E+00   3.237213E+00   3.391675E+00   3.556958E+00   3.740143E+00   3.941392E+00   4.130610E+00   4.330823E+00   4.528658E+00   4.721806E+00   4.875784E+00   4.993438E+00   5.067560E+00   5.074053E+00   4.979797E+00   4.778489E+00   4.475088E+00   4.123460E+00   3.773203E+00   3.475847E+00   3.218959E+00   3.015936E+00   2.854849E+00   2.731319E+00   2.650465E+00   2.601995E+00   2.606202E+00   2.658703E+00   2.753493E+00   2.901341E+00   3.083047E+00   3.264133E+00   3.424798E+00   3.535107E+00   3.600153E+00   3.640236E+00   3.670232E+00   3.741534E+00   3.854677E+00   4.002885E+00   4.173428E+00   4.335625E+00   4.434322E+00   4.437450E+00   4.351110E+00   4.188576E+00   3.979754E+00   3.749471E+00   3.520317E+00   3.295691E+00   3.104589E+00   2.943945E+00   2.832857E+00   2.760084E+00   2.730545E+00   2.735552E+00   2.772086E+00   2.824101E+00   2.866987E+00   2.880526E+00   2.862862E+00   2.808568E+00   2.741892E+00   2.651309E+00   2.550839E+00   2.460110E+00   2.394042E+00   2.382311E+00   2.432559E+00   2.542918E+00   2.699322E+00   2.900873E+00   3.110716E+00   3.316636E+00   3.494588E+00   3.621185E+00   3.674494E+00   3.670985E+00   3.599930E+00   3.484256E+00   3.344294E+00   3.200588E+00   3.072309E+00   2.982326E+00   2.926381E+00   2.896142E+00   2.879784E+00   2.874314E+00   2.873562E+00   2.885769E+00   2.914753E+00   2.965710E+00   3.022886E+00   3.066676E+00   3.108747E+00   3.122460E+00   3.139264E+00   3.170767E+00   3.221249E+00   3.308627E+00   3.421027E+00   3.553411E+00   3.683105E+00   3.774466E+00   3.814163E+00   3.802458E+00   3.771296E+00   3.743895E+00   3.736559E+00   3.735306E+00   3.735834E+00   3.698884E+00   3.619857E+00   3.520880E+00   3.397849E+00   3.291404E+00   3.229263E+00   3.249328E+00   3.343163E+00   3.512432E+00   3.753388E+00   4.030131E+00   4.332445E+00   4.645407E+00   4.978234E+00   5.325343E+00   5.669943E+00   5.977849E+00   6.189720E+00   6.239439E+00   6.110022E+00   5.834376E+00   5.472356E+00   5.047030E+00   4.617130E+00   4.185048E+00   3.797851E+00   3.451084E+00   3.153055E+00   2.899303E+00   2.672894E+00   2.492142E+00   2.357010E+00   2.272465E+00   2.236316E+00   2.257966E+00   2.327119E+00   2.455442E+00   2.631969E+00   2.853946E+00   3.110966E+00   3.385753E+00   3.642786E+00   3.848337E+00   3.999387E+00   4.091568E+00   4.130931E+00   4.141839E+00   4.115357E+00   4.073699E+00   4.031576E+00   3.994453E+00   3.959337E+00   3.948916E+00   3.954402E+00   3.999874E+00   4.075292E+00   4.202178E+00   4.371417E+00   4.536310E+00   4.674777E+00   4.758313E+00   4.767442E+00   4.727354E+00   4.655258E+00   4.566305E+00   4.446121E+00   4.311006E+00   4.158877E+00
   4.043879E+00   4.084125E+00   4.071382E+00   4.037247E+00   3.960896E+00   3.885108E+00   3.813680E+00   3.759594E+00   3.693168E+00   3.604291E+00   3.480285E+00   3.350405E+00   3.221580E+00   3.114341E+00   3.027868E+00   2.968669E+00   2.913779E+00   2.901062E+00   2.924466E+00   2.989184E+00   3.088290E+00   3.214547E+00   3.342186E+00   3.478792E+00   3.627390E+00   3.797536E+00   3.965853E+00   4.147799E+00   4.341862E+00   4.551758E+00   4.756216E+00   4.954488E+00   5.104892E+00   5.217206E+00   5.243425E+00   5.179680E+00   5.008642E+00   4.735885E+00   4.380172E+00   4.003439E+00   3.651409E+00   3.363441E+00   3.126444E+00   2.944851E+00   2.819427E+00   2.735665E+00   2.706907E+00   2.716667E+00   2.787131E+00   2.908847E+00   3.080233E+00   3.272107E+00   3.457883E+00   3.628105E+00   3.747715E+00   3.825934E+00   3.874154E+00   3.940790E+00   4.035841E+00   4.175357E+00   4.366378E+00   4.565724E+00   4.748733E+00   4.855770E+00   4.847352E+00   4.723843E+00   4.530138E+00   4.301335E+00   4.056974E+00   3.805718E+00   3.577984E+00   3.378770E+00   3.201889E+00   3.065744E+00   2.968096E+00   2.905818E+00   2.886132E+00   2.880678E+00   2.896285E+00   2.904940E+00   2.900041E+00   2.859208E+00   2.798676E+00   2.724248E+00   2.643055E+00   2.555289E+00   2.475900E+00   2.430823E+00   2.431591E+00   2.497182E+00   2.613852E+00   2.782301E+00   2.976239E+00   3.193743E+00   3.412626E+00   3.608528E+00   3.763880E+00   3.838489E+00   3.843400E+00   3.785204E+00   3.673157E+00   3.547321E+00   3.416389E+00   3.299172E+00   3.212914E+00   3.165067E+00   3.149315E+00   3.144121E+00   3.148411E+00   3.160327E+00   3.179316E+00   3.207973E+00   3.260630E+00   3.311375E+00   3.340846E+00   3.346209E+00   3.324848E+00   3.288117E+00   3.258514E+00   3.245141E+00   3.259866E+00   3.298033E+00   3.354376E+00   3.410021E+00   3.442187E+00   3.444076E+00   3.414966E+00   3.381993E+00   3.374774E+00   3.389922E+00   3.444548E+00   3.502433E+00   3.535222E+00   3.518725E+00   3.461596E+00   3.369224E+00   3.284052E+00   3.227505E+00   3.242618E+00   3.322114E+00   3.490623E+00   3.741299E+00   4.033983E+00   4.338435E+00   4.636147E+00   4.931510E+00   5.239659E+00   5.556886E+00   5.846663E+00   6.059550E+00   6.143180E+00   6.062879E+00   5.840049E+00   5.501653E+00   5.102427E+00   4.675189E+00   4.269419E+00   3.885756E+00   3.559809E+00   3.277741E+00   3.028058E+00   2.793430E+00   2.600730E+00   2.452239E+00   2.351961E+00   2.308982E+00   2.313986E+00   2.382424E+00   2.499618E+00   2.668901E+00   2.871827E+00   3.122578E+00   3.384888E+00   3.627110E+00   3.814492E+00   3.943399E+00   4.011225E+00   4.034922E+00   4.030986E+00   3.989328E+00   3.959937E+00   3.940109E+00   3.914011E+00   3.892382E+00   3.874845E+00   3.877498E+00   3.913080E+00   3.978063E+00   4.087515E+00   4.228356E+00   4.380886E+00   4.500020E+00   4.580639E+00   4.593288E+00   4.575021E+00   4.526845E+00   4.442143E+00   4.360316E+00   4.254770E+00   4.139080E+00
   4.118115E+00   4.210687E+00   4.262573E+00   4.249900E+00   4.208400E+00   4.125076E+00   4.065151E+00   3.997402E+00   3.909307E+00   3.779704E+00   3.618874E+00   3.459114E+00   3.315494E+00   3.196839E+00   3.115824E+00   3.068285E+00   3.036252E+00   3.024495E+00   3.037604E+00   3.091160E+00   3.170644E+00   3.276360E+00   3.403703E+00   3.532103E+00   3.672507E+00   3.816621E+00   3.980186E+00   4.159691E+00   4.383517E+00   4.596370E+00   4.813712E+00   5.005718E+00   5.181219E+00   5.288944E+00   5.335428E+00   5.284637E+00   5.155549E+00   4.924425E+00   4.610992E+00   4.238831E+00   3.877095E+00   3.553915E+00   3.294829E+00   3.100919E+00   2.959611E+00   2.877065E+00   2.846777E+00   2.876534E+00   2.957558E+00   3.078116E+00   3.238021E+00   3.413482E+00   3.595155E+00   3.736070E+00   3.842370E+00   3.909579E+00   3.972969E+00   4.057642E+00   4.187087E+00   4.375878E+00   4.611284E+00   4.858564E+00   5.050859E+00   5.164253E+00   5.161572E+00   5.043858E+00   4.842673E+00   4.610192E+00   4.365959E+00   4.127690E+00   3.916890E+00   3.720253E+00   3.535037E+00   3.382118E+00   3.238432E+00   3.138166E+00   3.068126E+00   3.020141E+00   2.986614E+00   2.955776E+00   2.921007E+00   2.867464E+00   2.804864E+00   2.742465E+00   2.669731E+00   2.617063E+00   2.576404E+00   2.566275E+00   2.601663E+00   2.682249E+00   2.829346E+00   3.011192E+00   3.223594E+00   3.450617E+00   3.654184E+00   3.813628E+00   3.943777E+00   4.021146E+00   4.009756E+00   3.952980E+00   3.842247E+00   3.726946E+00   3.610668E+00   3.506901E+00   3.426305E+00   3.373839E+00   3.343291E+00   3.344406E+00   3.354869E+00   3.380434E+00   3.413935E+00   3.450023E+00   3.492863E+00   3.513634E+00   3.511693E+00   3.486551E+00   3.433243E+00   3.358772E+00   3.270628E+00   3.190189E+00   3.132928E+00   3.100477E+00   3.091441E+00   3.086344E+00   3.077407E+00   3.064364E+00   3.046111E+00   3.046380E+00   3.069629E+00   3.128774E+00   3.219476E+00   3.329393E+00   3.412859E+00   3.460286E+00   3.453541E+00   3.415317E+00   3.354115E+00   3.319208E+00   3.333364E+00   3.424579E+00   3.582971E+00   3.817659E+00   4.090581E+00   4.375760E+00   4.642293E+00   4.914666E+00   5.188728E+00   5.481453E+00   5.738923E+00   5.936607E+00   6.020699E+00   5.969086E+00   5.783120E+00   5.506492E+00   5.158164E+00   4.773702E+00   4.398423E+00   4.036802E+00   3.707469E+00   3.424892E+00   3.168927E+00   2.935957E+00   2.729301E+00   2.576507E+00   2.472589E+00   2.422820E+00   2.430606E+00   2.485284E+00   2.601727E+00   2.751897E+00   2.948720E+00   3.172739E+00   3.408864E+00   3.626586E+00   3.803690E+00   3.900703E+00   3.954857E+00   3.968109E+00   3.952746E+00   3.917108E+00   3.892384E+00   3.872075E+00   3.861576E+00   3.835528E+00   3.817331E+00   3.801785E+00   3.815157E+00   3.856650E+00   3.933220E+00   4.037002E+00   4.144401E+00   4.243080E+00   4.294551E+00   4.319901E+00   4.320015E+00   4.297528E+00   4.257736E+00   4.216743E+00   4.165095E+00   4.084657E+00