# LPF package for  MODFLOW-2005, generated by Flopy.
         0    -1E+30         0  
         0
         0
   1.000000E+00
         0
         0
INTERNAL               1 (200E15.6) -1 #hk layer 1                    
   3.962820E+00   3.935313E+00   3.904671E+00   3.862654E+00   3.833899E+00   3.813460E+00   3.802090E+00   3.789334E+00   3.787708E+00   3.761436E+00   3.732000E+00   3.688980E+00   3.641760E+00   3.585363E+00   3.527779E+00   3.488891E+00   3.471404E+00   3.475746E+00   3.488029E+00   3.515151E+00   3.555681E+00   3.610421E+00   3.676461E+00   3.769981E+00   3.856673E+00   3.942857E+00   4.024223E+00   4.102796E+00   4.173537E+00   4.229031E+00   4.263617E+00   4.278294E+00   4.262599E+00   4.208858E+00   4.144207E+00   4.061096E+00   3.983680E+00   3.902496E+00   3.837313E+00   3.780402E+00   3.734360E+00   3.705025E+00   3.677666E+00   3.641478E+00   3.612173E+00   3.596259E+00   3.597914E+00   3.596498E+00   3.597130E+00   3.587769E+00   3.565985E+00   3.538582E+00   3.502722E+00   3.461036E+00   3.425292E+00   3.380533E+00   3.348201E+00   3.330747E+00   3.342695E+00   3.384872E+00   3.437980E+00   3.508749E+00   3.589092E+00   3.667647E+00   3.725003E+00   3.774263E+00   3.803842E+00   3.824080E+00   3.826034E+00   3.806096E+00   3.768672E+00   3.724292E+00   3.683929E+00   3.658884E+00   3.654793E+00   3.647239E+00   3.655516E+00   3.651836E+00   3.644658E+00   3.635249E+00   3.635857E+00   3.623840E+00   3.611501E+00   3.599552E+00   3.583158E+00   3.572313E+00   3.570098E+00   3.582429E+00   3.598408E+00   3.649216E+00   3.715101E+00   3.791116E+00   3.863495E+00   3.918535E+00   3.938259E+00   3.934473E+00   3.911974E+00   3.868343E+00   3.820375E+00   3.755424E+00   3.689000E+00   3.614568E+00   3.539026E+00   3.483723E+00   3.436978E+00   3.398764E+00   3.375566E+00   3.354444E+00   3.352478E+00   3.340938E+00   3.328655E+00   3.308950E+00   3.299351E+00   3.305016E+00   3.313845E+00   3.343986E+00   3.403384E+00   3.481883E+00   3.577391E+00   3.681859E+00   3.773095E+00   3.873346E+00   3.962985E+00   4.047314E+00   4.127040E+00   4.192554E+00   4.268159E+00   4.325118E+00   4.356727E+00   4.372998E+00   4.360164E+00   4.335505E+00   4.308287E+00   4.267493E+00   4.212864E+00   4.168934E+00   4.110924E+00   4.072193E+00   4.050300E+00   4.051431E+00   4.074130E+00   4.106700E+00   4.158691E+00   4.213217E+00   4.279427E+00   4.349028E+00   4.431327E+00   4.525131E+00   4.590672E+00   4.616910E+00   4.595837E+00   4.545353E+00   4.457908E+00   4.370993E+00   4.269324E+00   4.164083E+00   4.064099E+00   3.962171E+00   3.866550E+00   3.760748E+00   3.673543E+00   3.573028E+00   3.493767E+00   3.439941E+00   3.401803E+00   3.385029E+00   3.389080E+00   3.415167E+00   3.461384E+00   3.544922E+00   3.647810E+00   3.756945E+00   3.870743E+00   3.969802E+00   4.043731E+00   4.095042E+00   4.129689E+00   4.161145E+00   4.187694E+00   4.202774E+00   4.222611E+00   4.238708E+00   4.252092E+00   4.250774E+00   4.239268E+00   4.202536E+00   4.153415E+00   4.090235E+00   4.032346E+00   3.993900E+00   3.975826E+00   3.977650E+00   3.985560E+00   4.000571E+00   4.005387E+00   4.010413E+00   4.010069E+00   3.991279E+00   3.983242E+00   3.979311E+00
   3.931141E+00   3.887813E+00   3.829885E+00   3.762687E+00   3.694605E+00   3.655548E+00   3.623526E+00   3.599728E+00   3.585450E+00   3.569030E+00   3.518163E+00   3.458942E+00   3.366302E+00   3.277709E+00   3.189158E+00   3.124499E+00   3.088316E+00   3.089705E+00   3.109167E+00   3.146264E+00   3.207279E+00   3.295172E+00   3.409251E+00   3.546563E+00   3.701705E+00   3.869812E+00   4.044605E+00   4.213289E+00   4.364240E+00   4.477149E+00   4.543059E+00   4.578809E+00   4.539716E+00   4.450232E+00   4.314062E+00   4.167112E+00   4.017019E+00   3.866518E+00   3.721268E+00   3.617241E+00   3.532079E+00   3.477580E+00   3.426633E+00   3.378172E+00   3.326959E+00   3.299463E+00   3.291497E+00   3.285651E+00   3.283009E+00   3.269653E+00   3.242138E+00   3.198295E+00   3.152117E+00   3.091778E+00   3.019358E+00   2.953146E+00   2.904846E+00   2.881464E+00   2.896977E+00   2.955982E+00   3.048450E+00   3.177632E+00   3.316670E+00   3.439615E+00   3.541129E+00   3.620439E+00   3.659992E+00   3.671057E+00   3.654667E+00   3.607893E+00   3.536916E+00   3.463154E+00   3.394941E+00   3.346717E+00   3.318363E+00   3.305859E+00   3.306904E+00   3.317419E+00   3.330924E+00   3.344846E+00   3.346370E+00   3.339869E+00   3.320494E+00   3.291764E+00   3.255762E+00   3.224337E+00   3.214516E+00   3.223512E+00   3.257226E+00   3.327060E+00   3.449920E+00   3.571984E+00   3.708473E+00   3.808565E+00   3.861281E+00   3.866296E+00   3.817877E+00   3.748559E+00   3.659307E+00   3.553554E+00   3.436550E+00   3.309719E+00   3.183191E+00   3.082416E+00   3.003080E+00   2.939850E+00   2.899279E+00   2.875806E+00   2.858050E+00   2.842798E+00   2.823272E+00   2.810639E+00   2.814613E+00   2.824087E+00   2.855811E+00   2.913277E+00   2.996968E+00   3.108359E+00   3.251690E+00   3.408153E+00   3.570902E+00   3.748468E+00   3.919918E+00   4.086909E+00   4.236312E+00   4.381798E+00   4.511688E+00   4.608115E+00   4.648689E+00   4.659132E+00   4.639134E+00   4.593599E+00   4.519034E+00   4.415534E+00   4.309404E+00   4.212327E+00   4.139902E+00   4.086496E+00   4.073563E+00   4.088411E+00   4.138780E+00   4.222630E+00   4.297305E+00   4.406929E+00   4.525930E+00   4.681115E+00   4.854811E+00   5.038136E+00   5.182854E+00   5.230624E+00   5.195615E+00   5.072812E+00   4.905346E+00   4.710564E+00   4.497519E+00   4.284770E+00   4.077309E+00   3.883602E+00   3.689498E+00   3.513118E+00   3.339058E+00   3.194850E+00   3.066956E+00   2.986059E+00   2.935614E+00   2.910784E+00   2.919043E+00   2.971620E+00   3.068341E+00   3.208071E+00   3.374134E+00   3.558434E+00   3.746841E+00   3.910075E+00   4.046123E+00   4.142846E+00   4.213926E+00   4.271407E+00   4.313834E+00   4.348742E+00   4.380037E+00   4.415405E+00   4.425708E+00   4.420890E+00   4.382710E+00   4.329351E+00   4.248398E+00   4.153637E+00   4.068987E+00   4.005491E+00   4.004565E+00   4.019427E+00   4.045408E+00   4.060095E+00   4.058456E+00   4.055180E+00   4.037173E+00   4.011982E+00   3.986854E+00   3.982385E+00
   3.911504E+00   3.831605E+00   3.749219E+00   3.665414E+00   3.598464E+00   3.527505E+00   3.482021E+00   3.448097E+00   3.426266E+00   3.389740E+00   3.342205E+00   3.261525E+00   3.174605E+00   3.070592E+00   2.974704E+00   2.897421E+00   2.853481E+00   2.846222E+00   2.866508E+00   2.912827E+00   2.976845E+00   3.079564E+00   3.216181E+00   3.387990E+00   3.577449E+00   3.793797E+00   4.038408E+00   4.277013E+00   4.495843E+00   4.657856E+00   4.768679E+00   4.801779E+00   4.763136E+00   4.652966E+00   4.500810E+00   4.293147E+00   4.082458E+00   3.863259E+00   3.680033E+00   3.528615E+00   3.415967E+00   3.325244E+00   3.259057E+00   3.194439E+00   3.126876E+00   3.063655E+00   3.039061E+00   3.014046E+00   3.012127E+00   3.011119E+00   3.004592E+00   2.979416E+00   2.953308E+00   2.897977E+00   2.834865E+00   2.772769E+00   2.717947E+00   2.691970E+00   2.709829E+00   2.779252E+00   2.893780E+00   3.038688E+00   3.197043E+00   3.347905E+00   3.465354E+00   3.536786E+00   3.565679E+00   3.554958E+00   3.505535E+00   3.429790E+00   3.323841E+00   3.222736E+00   3.129852E+00   3.063128E+00   3.021196E+00   3.000945E+00   3.008870E+00   3.033686E+00   3.074833E+00   3.111362E+00   3.131332E+00   3.131742E+00   3.116933E+00   3.074471E+00   3.034646E+00   2.993642E+00   2.965315E+00   2.958113E+00   2.984949E+00   3.067210E+00   3.196833E+00   3.362690E+00   3.524406E+00   3.668434E+00   3.739358E+00   3.749005E+00   3.708298E+00   3.630275E+00   3.534295E+00   3.403966E+00   3.256370E+00   3.102395E+00   2.953617E+00   2.817787E+00   2.714883E+00   2.634245E+00   2.577080E+00   2.543990E+00   2.526173E+00   2.512534E+00   2.502584E+00   2.501344E+00   2.520638E+00   2.552521E+00   2.595354E+00   2.671923E+00   2.769050E+00   2.892372E+00   3.055864E+00   3.236748E+00   3.429602E+00   3.652603E+00   3.877809E+00   4.097631E+00   4.299289E+00   4.472199E+00   4.633112E+00   4.738508E+00   4.800450E+00   4.799436E+00   4.754766E+00   4.666534E+00   4.541384E+00   4.402872E+00   4.262212E+00   4.144732E+00   4.046773E+00   4.001853E+00   3.997488E+00   4.042677E+00   4.127876E+00   4.226826E+00   4.359331E+00   4.515005E+00   4.710876E+00   4.934713E+00   5.204983E+00   5.455351E+00   5.643394E+00   5.717364E+00   5.675307E+00   5.512747E+00   5.265779E+00   4.981397E+00   4.677511E+00   4.377777E+00   4.084599E+00   3.800966E+00   3.528924E+00   3.281141E+00   3.065392E+00   2.875206E+00   2.742933E+00   2.651851E+00   2.600050E+00   2.586527E+00   2.616621E+00   2.692644E+00   2.816013E+00   2.983850E+00   3.191695E+00   3.408424E+00   3.632113E+00   3.836354E+00   4.016688E+00   4.146621E+00   4.244366E+00   4.310275E+00   4.362399E+00   4.401029E+00   4.424055E+00   4.431540E+00   4.438433E+00   4.416625E+00   4.375105E+00   4.307392E+00   4.232626E+00   4.168274E+00   4.108478E+00   4.084070E+00   4.096389E+00   4.141310E+00   4.192066E+00   4.206999E+00   4.196905E+00   4.158653E+00   4.117004E+00   4.076358E+00   4.039477E+00   4.009728E+00
   3.896442E+00   3.808156E+00   3.706750E+00   3.617187E+00   3.544080E+00   3.483318E+00   3.426285E+00   3.386147E+00   3.348358E+00   3.304799E+00   3.237540E+00   3.162002E+00   3.060407E+00   2.958688E+00   2.861170E+00   2.788357E+00   2.738267E+00   2.722413E+00   2.739237E+00   2.785969E+00   2.847442E+00   2.944688E+00   3.081719E+00   3.264340E+00   3.476884E+00   3.718719E+00   3.984122E+00   4.265406E+00   4.517211E+00   4.717016E+00   4.851022E+00   4.916338E+00   4.878304E+00   4.797342E+00   4.627609E+00   4.407976E+00   4.159665E+00   3.904488E+00   3.671268E+00   3.492133E+00   3.347581E+00   3.228816E+00   3.124458E+00   3.028175E+00   2.943608E+00   2.872935E+00   2.827054E+00   2.791369E+00   2.786594E+00   2.800144E+00   2.825027E+00   2.848040E+00   2.864324E+00   2.863553E+00   2.830270E+00   2.784890E+00   2.741654E+00   2.726121E+00   2.748880E+00   2.821570E+00   2.941221E+00   3.095603E+00   3.256238E+00   3.401479E+00   3.504553E+00   3.551146E+00   3.540951E+00   3.483056E+00   3.396825E+00   3.283558E+00   3.157844E+00   3.024841E+00   2.914486E+00   2.825015E+00   2.781401E+00   2.772255E+00   2.795484E+00   2.835996E+00   2.895819E+00   2.947698E+00   2.992416E+00   3.008449E+00   2.996213E+00   2.955507E+00   2.894551E+00   2.837342E+00   2.787104E+00   2.764704E+00   2.784319E+00   2.852299E+00   2.985298E+00   3.145953E+00   3.332079E+00   3.492564E+00   3.601451E+00   3.641045E+00   3.617094E+00   3.549237E+00   3.454293E+00   3.324235E+00   3.169698E+00   2.996342E+00   2.833376E+00   2.695350E+00   2.574536E+00   2.488415E+00   2.434485E+00   2.394023E+00   2.381380E+00   2.367316E+00   2.370885E+00   2.385405E+00   2.416087E+00   2.466291E+00   2.530052E+00   2.616285E+00   2.714404E+00   2.835484E+00   2.981770E+00   3.154778E+00   3.349952E+00   3.571024E+00   3.813071E+00   4.058851E+00   4.280416E+00   4.463949E+00   4.608597E+00   4.703825E+00   4.741343E+00   4.728728E+00   4.661960E+00   4.551369E+00   4.399834E+00   4.235906E+00   4.082172E+00   3.944453E+00   3.856279E+00   3.807133E+00   3.816118E+00   3.887457E+00   4.004960E+00   4.149797E+00   4.329000E+00   4.553416E+00   4.811250E+00   5.114405E+00   5.422189E+00   5.737278E+00   5.978819E+00   6.084865E+00   6.043968E+00   5.855877E+00   5.551223E+00   5.188580E+00   4.810341E+00   4.451995E+00   4.092690E+00   3.748612E+00   3.425056E+00   3.138460E+00   2.889274E+00   2.700516E+00   2.550621E+00   2.445064E+00   2.391462E+00   2.380233E+00   2.412770E+00   2.497595E+00   2.634151E+00   2.831374E+00   3.050223E+00   3.292292E+00   3.532398E+00   3.767125E+00   3.958844E+00   4.114062E+00   4.210433E+00   4.282801E+00   4.320483E+00   4.340705E+00   4.338713E+00   4.336215E+00   4.304261E+00   4.282089E+00   4.232584E+00   4.190520E+00   4.156242E+00   4.130682E+00   4.139682E+00   4.186122E+00   4.259734E+00   4.341809E+00   4.394880E+00   4.416456E+00   4.386850E+00   4.324020E+00   4.237618E+00   4.156509E+00   4.092299E+00   4.036702E+00
   3.901816E+00   3.809924E+00   3.713160E+00   3.630318E+00   3.558598E+00   3.493022E+00   3.438092E+00   3.386615E+00   3.350074E+00   3.288775E+00   3.216448E+00   3.121685E+00   3.023611E+00   2.922883E+00   2.831583E+00   2.753479E+00   2.702123E+00   2.679210E+00   2.700316E+00   2.743130E+00   2.818245E+00   2.927147E+00   3.056870E+00   3.230878E+00   3.438959E+00   3.676044E+00   3.933156E+00   4.188183E+00   4.435819E+00   4.642331E+00   4.792663E+00   4.872720E+00   4.909021E+00   4.864827E+00   4.746828E+00   4.554139E+00   4.323917E+00   4.030190E+00   3.759011E+00   3.508608E+00   3.313959E+00   3.156528E+00   3.022598E+00   2.903689E+00   2.799670E+00   2.721431E+00   2.671268E+00   2.639195E+00   2.636855E+00   2.670547E+00   2.738977E+00   2.823232E+00   2.910354E+00   2.960852E+00   2.976390E+00   2.960486E+00   2.945622E+00   2.944943E+00   2.982978E+00   3.057610E+00   3.184414E+00   3.341365E+00   3.498672E+00   3.627054E+00   3.702881E+00   3.705058E+00   3.643043E+00   3.534591E+00   3.393743E+00   3.237323E+00   3.073746E+00   2.923774E+00   2.788081E+00   2.691012E+00   2.641520E+00   2.636090E+00   2.665185E+00   2.729313E+00   2.800056E+00   2.866302E+00   2.918304E+00   2.931515E+00   2.906387E+00   2.851955E+00   2.782054E+00   2.705292E+00   2.637003E+00   2.599592E+00   2.599541E+00   2.654204E+00   2.770161E+00   2.936190E+00   3.119723E+00   3.299235E+00   3.442751E+00   3.518830E+00   3.534801E+00   3.509200E+00   3.445299E+00   3.341326E+00   3.193273E+00   3.013581E+00   2.849958E+00   2.707211E+00   2.596726E+00   2.519314E+00   2.464828E+00   2.428804E+00   2.405084E+00   2.407260E+00   2.422567E+00   2.448875E+00   2.486951E+00   2.553488E+00   2.621962E+00   2.698272E+00   2.789771E+00   2.883132E+00   3.000405E+00   3.140939E+00   3.319703E+00   3.523851E+00   3.753383E+00   3.991482E+00   4.187738E+00   4.355394E+00   4.461164E+00   4.499487E+00   4.505361E+00   4.484733E+00   4.418731E+00   4.309465E+00   4.154372E+00   4.001453E+00   3.840244E+00   3.701634E+00   3.600870E+00   3.565573E+00   3.584726E+00   3.674382E+00   3.811363E+00   4.003964E+00   4.232837E+00   4.505523E+00   4.816919E+00   5.151870E+00   5.489652E+00   5.837211E+00   6.113326E+00   6.268787E+00   6.251217E+00   6.081806E+00   5.759016E+00   5.355284E+00   4.927797E+00   4.504626E+00   4.098970E+00   3.720322E+00   3.368579E+00   3.066302E+00   2.811060E+00   2.601011E+00   2.445428E+00   2.332279E+00   2.270615E+00   2.254862E+00   2.288264E+00   2.376289E+00   2.523483E+00   2.715616E+00   2.945178E+00   3.191273E+00   3.443807E+00   3.689654E+00   3.914170E+00   4.080896E+00   4.193851E+00   4.247835E+00   4.280691E+00   4.269717E+00   4.249214E+00   4.207974E+00   4.173957E+00   4.136487E+00   4.109277E+00   4.082504E+00   4.089717E+00   4.123941E+00   4.194756E+00   4.302186E+00   4.424875E+00   4.542358E+00   4.624163E+00   4.634952E+00   4.598891E+00   4.523409E+00   4.415229E+00   4.300716E+00   4.189483E+00   4.089494E+00
   3.927747E+00   3.860559E+00   3.788509E+00   3.723024E+00   3.643476E+00   3.574770E+00   3.506831E+00   3.459782E+00   3.412242E+00   3.347363E+00   3.262720E+00   3.164058E+00   3.052890E+00   2.956291E+00   2.865036E+00   2.791634E+00   2.733651E+00   2.716637E+00   2.735171E+00   2.798484E+00   2.882256E+00   2.998295E+00   3.128556E+00   3.293630E+00   3.480988E+00   3.681783E+00   3.901998E+00   4.138584E+00   4.358841E+00   4.559583E+00   4.716433E+00   4.837368E+00   4.929038E+00   4.954621E+00   4.886618E+00   4.749172E+00   4.528971E+00   4.226881E+00   3.908129E+00   3.604088E+00   3.350891E+00   3.144499E+00   2.970729E+00   2.836991E+00   2.728243E+00   2.642765E+00   2.593835E+00   2.572650E+00   2.599904E+00   2.667208E+00   2.776394E+00   2.913698E+00   3.051881E+00   3.166313E+00   3.228315E+00   3.264101E+00   3.281389E+00   3.301282E+00   3.351066E+00   3.445731E+00   3.576614E+00   3.732356E+00   3.894379E+00   4.002624E+00   4.042545E+00   3.995271E+00   3.872533E+00   3.710730E+00   3.517573E+00   3.312976E+00   3.124998E+00   2.946073E+00   2.803037E+00   2.694226E+00   2.638737E+00   2.634032E+00   2.659445E+00   2.716689E+00   2.789902E+00   2.847584E+00   2.889803E+00   2.890563E+00   2.853025E+00   2.790143E+00   2.706925E+00   2.614048E+00   2.526911E+00   2.465669E+00   2.452655E+00   2.498219E+00   2.602125E+00   2.761262E+00   2.956343E+00   3.156824E+00   3.335749E+00   3.461376E+00   3.531235E+00   3.551209E+00   3.522965E+00   3.437428E+00   3.300197E+00   3.144532E+00   2.985043E+00   2.848277E+00   2.744299E+00   2.675930E+00   2.636594E+00   2.606605E+00   2.595234E+00   2.592669E+00   2.609738E+00   2.639752E+00   2.691651E+00   2.751037E+00   2.813182E+00   2.870777E+00   2.921370E+00   2.980932E+00   3.060449E+00   3.169232E+00   3.313244E+00   3.482745E+00   3.679183E+00   3.871700E+00   4.036202E+00   4.142793E+00   4.185159E+00   4.175974E+00   4.163118E+00   4.129568E+00   4.091670E+00   4.017450E+00   3.917053E+00   3.790955E+00   3.647801E+00   3.508802E+00   3.404524E+00   3.357872E+00   3.388557E+00   3.479511E+00   3.632054E+00   3.853925E+00   4.107708E+00   4.400794E+00   4.727082E+00   5.081617E+00   5.440218E+00   5.796794E+00   6.092192E+00   6.274813E+00   6.310320E+00   6.158032E+00   5.832170E+00   5.429728E+00   4.998476E+00   4.558695E+00   4.133201E+00   3.731888E+00   3.385390E+00   3.080748E+00   2.821256E+00   2.606433E+00   2.437135E+00   2.311261E+00   2.234194E+00   2.206387E+00   2.235701E+00   2.315093E+00   2.456101E+00   2.644327E+00   2.873764E+00   3.128437E+00   3.389728E+00   3.645088E+00   3.861952E+00   4.030890E+00   4.143788E+00   4.210322E+00   4.221457E+00   4.217314E+00   4.169299E+00   4.132557E+00   4.085207E+00   4.054800E+00   4.028728E+00   4.035610E+00   4.067022E+00   4.131654E+00   4.238957E+00   4.389780E+00   4.554307E+00   4.688969E+00   4.765594E+00   4.777491E+00   4.730369E+00   4.655560E+00   4.559822E+00   4.433063E+00   4.291862E+00   4.145255E+00
   3.979197E+00   3.955999E+00   3.915951E+00   3.845948E+00   3.786987E+00   3.701964E+00   3.640056E+00   3.584882E+00   3.538205E+00   3.469504E+00   3.374317E+00   3.260468E+00   3.136860E+00   3.032489E+00   2.942963E+00   2.871683E+00   2.819772E+00   2.791085E+00   2.820450E+00   2.884004E+00   2.985025E+00   3.111090E+00   3.237762E+00   3.392285E+00   3.557605E+00   3.740806E+00   3.942050E+00   4.131241E+00   4.331409E+00   4.529181E+00   4.722258E+00   4.876167E+00   4.993765E+00   5.067844E+00   5.074302E+00   4.980012E+00   4.778679E+00   4.475255E+00   4.123612E+00   3.773344E+00   3.475983E+00   3.219096E+00   3.016072E+00   2.854990E+00   2.731465E+00   2.650625E+00   2.602175E+00   2.606414E+00   2.658954E+00   2.753797E+00   2.901704E+00   3.083470E+00   3.264599E+00   3.425285E+00   3.535582E+00   3.600588E+00   3.640623E+00   3.670572E+00   3.741843E+00   3.854959E+00   4.003149E+00   4.173669E+00   4.335833E+00   4.434467E+00   4.437506E+00   4.351061E+00   4.188430E+00   3.979527E+00   3.749190E+00   3.520010E+00   3.295382E+00   3.104298E+00   2.943689E+00   2.832641E+00   2.759908E+00   2.730406E+00   2.735444E+00   2.772004E+00   2.824045E+00   2.866954E+00   2.880506E+00   2.862845E+00   2.808543E+00   2.741853E+00   2.651247E+00   2.550754E+00   2.460006E+00   2.393924E+00   2.382185E+00   2.432433E+00   2.542796E+00   2.699214E+00   2.900790E+00   3.110670E+00   3.316633E+00   3.494624E+00   3.621253E+00   3.674585E+00   3.671094E+00   3.600053E+00   3.484389E+00   3.344432E+00   3.200728E+00   3.072452E+00   2.982473E+00   2.926527E+00   2.896283E+00   2.879914E+00   2.874418E+00   2.873634E+00   2.885804E+00   2.914752E+00   2.965667E+00   3.022794E+00   3.066530E+00   3.108543E+00   3.122195E+00   3.138941E+00   3.170393E+00   3.220842E+00   3.308206E+00   3.420610E+00   3.553011E+00   3.682734E+00   3.774125E+00   3.813857E+00   3.802185E+00   3.771054E+00   3.743686E+00   3.736380E+00   3.735155E+00   3.735705E+00   3.698773E+00   3.619759E+00   3.520791E+00   3.397763E+00   3.291330E+00   3.229201E+00   3.249279E+00   3.343124E+00   3.512403E+00   3.753370E+00   4.030136E+00   4.332483E+00   4.645471E+00   4.978320E+00   5.325446E+00   5.670060E+00   5.977985E+00   6.189861E+00   6.239576E+00   6.110140E+00   5.834484E+00   5.472451E+00   5.047125E+00   4.617236E+00   4.185165E+00   3.797978E+00   3.451218E+00   3.153190E+00   2.899436E+00   2.673019E+00   2.492259E+00   2.357120E+00   2.272576E+00   2.236441E+00   2.258119E+00   2.327317E+00   2.455705E+00   2.632321E+00   2.854410E+00   3.111569E+00   3.386523E+00   3.643749E+00   3.849501E+00   4.000751E+00   4.093127E+00   4.132671E+00   4.143734E+00   4.117370E+00   4.075799E+00   4.033748E+00   3.996678E+00   3.961591E+00   3.951190E+00   3.956680E+00   4.002158E+00   4.077579E+00   4.204479E+00   4.373740E+00   4.538636E+00   4.677071E+00   4.760522E+00   4.769499E+00   4.729197E+00   4.656837E+00   4.567592E+00   4.447088E+00   4.311644E+00   4.159192E+00
   4.043854E+00   4.084071E+00   4.071281E+00   4.037083E+00   3.960655E+00   3.884785E+00   3.813277E+00   3.759128E+00   3.692657E+00   3.603765E+00   3.479769E+00   3.349927E+00   3.221167E+00   3.114012E+00   3.027638E+00   2.968547E+00   2.913773E+00   2.901175E+00   2.924699E+00   2.989532E+00   3.088742E+00   3.215091E+00   3.342806E+00   3.479468E+00   3.628103E+00   3.798255E+00   3.966553E+00   4.148454E+00   4.342453E+00   4.552270E+00   4.756636E+00   4.954818E+00   5.105140E+00   5.217393E+00   5.243558E+00   5.179780E+00   5.008727E+00   4.735964E+00   4.380249E+00   4.003514E+00   3.651490E+00   3.363525E+00   3.126534E+00   2.944952E+00   2.819542E+00   2.735799E+00   2.707073E+00   2.716873E+00   2.787389E+00   2.909165E+00   3.080621E+00   3.272562E+00   3.458390E+00   3.628638E+00   3.748235E+00   3.826415E+00   3.874578E+00   3.941163E+00   4.036171E+00   4.175655E+00   4.366645E+00   4.565961E+00   4.748921E+00   4.855886E+00   4.847364E+00   4.723752E+00   4.529958E+00   4.301086E+00   4.056682E+00   3.805407E+00   3.577675E+00   3.378484E+00   3.201642E+00   3.065539E+00   2.967930E+00   2.905684E+00   2.886025E+00   2.880597E+00   2.896227E+00   2.904902E+00   2.900006E+00   2.859166E+00   2.798612E+00   2.724154E+00   2.642924E+00   2.555123E+00   2.475709E+00   2.430612E+00   2.431365E+00   2.496947E+00   2.613613E+00   2.782070E+00   2.976030E+00   3.193567E+00   3.412490E+00   3.608430E+00   3.763808E+00   3.838434E+00   3.843355E+00   3.785162E+00   3.673113E+00   3.547279E+00   3.416355E+00   3.299150E+00   3.212904E+00   3.165067E+00   3.149323E+00   3.144129E+00   3.148405E+00   3.160294E+00   3.179251E+00   3.207875E+00   3.260492E+00   3.311191E+00   3.340618E+00   3.345932E+00   3.324525E+00   3.287745E+00   3.258104E+00   3.244706E+00   3.259432E+00   3.297614E+00   3.353981E+00   3.409655E+00   3.441845E+00   3.443756E+00   3.414670E+00   3.381718E+00   3.374520E+00   3.389692E+00   3.444340E+00   3.502249E+00   3.535060E+00   3.518586E+00   3.461472E+00   3.369112E+00   3.283956E+00   3.227427E+00   3.242553E+00   3.322060E+00   3.490576E+00   3.741262E+00   4.033963E+00   4.338436E+00   4.636165E+00   4.931539E+00   5.239697E+00   5.556932E+00   5.846725E+00   6.059625E+00   6.143266E+00   6.062977E+00   5.840150E+00   5.501766E+00   5.102551E+00   4.675333E+00   4.269582E+00   3.885938E+00   3.560005E+00   3.277945E+00   3.028265E+00   2.793636E+00   2.600931E+00   2.452434E+00   2.352156E+00   2.309191E+00   2.314223E+00   2.382702E+00   2.499952E+00   2.669312E+00   2.872336E+00   3.123214E+00   3.385680E+00   3.628081E+00   3.815638E+00   3.944720E+00   4.012714E+00   4.036567E+00   4.032771E+00   3.991223E+00   3.961936E+00   3.942202E+00   3.916178E+00   3.894603E+00   3.877103E+00   3.879774E+00   3.915365E+00   3.980358E+00   4.089825E+00   4.230678E+00   4.383211E+00   4.502299E+00   4.582828E+00   4.595316E+00   4.576832E+00   4.528389E+00   4.443388E+00   4.361244E+00   4.255380E+00   4.139379E+00
   4.118088E+00   4.210630E+00   4.262473E+00   4.249740E+00   4.208164E+00   4.124760E+00   4.064760E+00   3.996950E+00   3.908816E+00   3.779206E+00   3.618396E+00   3.458680E+00   3.315126E+00   3.196558E+00   3.115646E+00   3.068224E+00   3.036317E+00   3.024688E+00   3.037923E+00   3.091595E+00   3.171182E+00   3.276981E+00   3.404394E+00   3.532843E+00   3.673269E+00   3.817375E+00   3.980906E+00   4.160356E+00   4.384109E+00   4.596868E+00   4.814107E+00   5.006006E+00   5.181411E+00   5.289052E+00   5.335474E+00   5.284648E+00   5.155549E+00   4.924425E+00   4.611001E+00   4.238847E+00   3.877124E+00   3.553954E+00   3.294878E+00   3.100985E+00   2.959696E+00   2.877178E+00   2.846925E+00   2.876732E+00   2.957816E+00   3.078439E+00   3.238417E+00   3.413946E+00   3.595672E+00   3.736608E+00   3.842900E+00   3.910068E+00   3.973398E+00   4.058012E+00   4.187412E+00   4.376163E+00   4.611535E+00   4.858779E+00   5.051023E+00   5.164340E+00   5.161562E+00   5.043756E+00   4.842494E+00   4.609959E+00   4.365695E+00   4.127419E+00   3.916629E+00   3.720019E+00   3.534840E+00   3.381960E+00   3.238307E+00   3.138066E+00   3.068048E+00   3.020082E+00   2.986571E+00   2.955737E+00   2.920961E+00   2.867393E+00   2.804755E+00   2.742307E+00   2.669526E+00   2.616813E+00   2.576115E+00   2.565953E+00   2.601317E+00   2.681884E+00   2.828971E+00   3.010818E+00   3.223236E+00   3.450288E+00   3.653890E+00   3.813363E+00   3.943527E+00   4.020896E+00   4.009499E+00   3.952709E+00   3.841966E+00   3.726668E+00   3.610403E+00   3.506660E+00   3.426093E+00   3.373653E+00   3.343123E+00   3.344243E+00   3.354703E+00   3.380253E+00   3.413731E+00   3.449795E+00   3.492609E+00   3.513350E+00   3.511381E+00   3.486211E+00   3.432866E+00   3.358366E+00   3.270199E+00   3.189755E+00   3.132504E+00   3.100080E+00   3.091080E+00   3.086016E+00   3.077102E+00   3.064077E+00   3.045835E+00   3.046113E+00   3.069372E+00   3.128527E+00   3.219243E+00   3.329177E+00   3.412665E+00   3.460117E+00   3.453396E+00   3.415192E+00   3.354011E+00   3.319120E+00   3.333292E+00   3.424515E+00   3.582912E+00   3.817603E+00   4.090529E+00   4.375712E+00   4.642253E+00   4.914630E+00   5.188697E+00   5.481434E+00   5.738921E+00   5.936633E+00   6.020768E+00   5.969194E+00   5.783264E+00   5.506667E+00   5.158366E+00   4.773928E+00   4.398673E+00   4.037074E+00   3.707761E+00   3.425194E+00   3.169232E+00   2.936255E+00   2.729593E+00   2.576797E+00   2.472882E+00   2.423130E+00   2.430943E+00   2.485658E+00   2.602153E+00   2.752387E+00   2.949296E+00   3.173426E+00   3.409686E+00   3.627559E+00   3.804817E+00   3.901967E+00   3.956255E+00   3.969631E+00   3.954381E+00   3.918845E+00   3.894223E+00   3.874006E+00   3.863600E+00   3.837622E+00   3.819475E+00   3.803955E+00   3.817339E+00   3.858841E+00   3.935415E+00   4.039192E+00   4.146564E+00   4.245188E+00   4.296557E+00   4.321760E+00   4.321672E+00   4.298934E+00   4.258864E+00   4.217587E+00   4.165652E+00   4.084931E+00