# LPF package for  MODFLOW-2005, generated by Flopy.
         0    -1E+30         0  
         0
         0
   1.000000E+00
         0
         0
INTERNAL               1 (200E15.6) -1 #hk layer 1                    
   3.962801E+00   3.935282E+00   3.904639E+00   3.862629E+00   3.833888E+00   3.813461E+00   3.802099E+00   3.789347E+00   3.787719E+00   3.761438E+00   3.731983E+00   3.688935E+00   3.641679E+00   3.585248E+00   3.527636E+00   3.488719E+00   3.471200E+00   3.475512E+00   3.487773E+00   3.514877E+00   3.555394E+00   3.610129E+00   3.676168E+00   3.769695E+00   3.856403E+00   3.942609E+00   4.023998E+00   4.102593E+00   4.173356E+00   4.228868E+00   4.263467E+00   4.278148E+00   4.262461E+00   4.208734E+00   4.144103E+00   4.061016E+00   3.983629E+00   3.902469E+00   3.837303E+00   3.780396E+00   3.734350E+00   3.705004E+00   3.677638E+00   3.641438E+00   3.612117E+00   3.596179E+00   3.597811E+00   3.596370E+00   3.596981E+00   3.587606E+00   3.565819E+00   3.538415E+00   3.502559E+00   3.460879E+00   3.425143E+00   3.380396E+00   3.348077E+00   3.330636E+00   3.342592E+00   3.384767E+00   3.437863E+00   3.508615E+00   3.588940E+00   3.667480E+00   3.724834E+00   3.774095E+00   3.803675E+00   3.823914E+00   3.825871E+00   3.805940E+00   3.768525E+00   3.724157E+00   3.683805E+00   3.658772E+00   3.654689E+00   3.647142E+00   3.655422E+00   3.651738E+00   3.644555E+00   3.635143E+00   3.635747E+00   3.623732E+00   3.611392E+00   3.599445E+00   3.583053E+00   3.572205E+00   3.569986E+00   3.582309E+00   3.598277E+00   3.649075E+00   3.714950E+00   3.790957E+00   3.863332E+00   3.918368E+00   3.938089E+00   3.934299E+00   3.911790E+00   3.868144E+00   3.820158E+00   3.755189E+00   3.688748E+00   3.614303E+00   3.538759E+00   3.483465E+00   3.436736E+00   3.398545E+00   3.375377E+00   3.354285E+00   3.352347E+00   3.340835E+00   3.328575E+00   3.308893E+00   3.299314E+00   3.305001E+00   3.313850E+00   3.344011E+00   3.403421E+00   3.481933E+00   3.577449E+00   3.681924E+00   3.773161E+00   3.873410E+00   3.963044E+00   4.047365E+00   4.127084E+00   4.192590E+00   4.268193E+00   4.325157E+00   4.356776E+00   4.373056E+00   4.360233E+00   4.335585E+00   4.308373E+00   4.267582E+00   4.212955E+00   4.169026E+00   4.111013E+00   4.072282E+00   4.050387E+00   4.051527E+00   4.074234E+00   4.106815E+00   4.158818E+00   4.213358E+00   4.279585E+00   4.349199E+00   4.431508E+00   4.525327E+00   4.590886E+00   4.617141E+00   4.596074E+00   4.545596E+00   4.458146E+00   4.371222E+00   4.269543E+00   4.164292E+00   4.064309E+00   3.962384E+00   3.866767E+00   3.760969E+00   3.673769E+00   3.573256E+00   3.493987E+00   3.440142E+00   3.401976E+00   3.385170E+00   3.389185E+00   3.415235E+00   3.461416E+00   3.544918E+00   3.647775E+00   3.756882E+00   3.870649E+00   3.969676E+00   4.043567E+00   4.094841E+00   4.129444E+00   4.160854E+00   4.187355E+00   4.202395E+00   4.222198E+00   4.238272E+00   4.251644E+00   4.250325E+00   4.238821E+00   4.202106E+00   4.153014E+00   4.089874E+00   4.032028E+00   3.993623E+00   3.975590E+00   3.977456E+00   3.985397E+00   4.000440E+00   4.005282E+00   4.010328E+00   4.010002E+00   3.991223E+00   3.983206E+00   3.979295E+00
   3.931111E+00   3.887768E+00   3.829841E+00   3.762661E+00   3.694601E+00   3.655565E+00   3.623554E+00   3.599760E+00   3.585473E+00   3.569029E+00   3.518122E+00   3.458846E+00   3.366149E+00   3.277499E+00   3.188896E+00   3.124191E+00   3.087962E+00   3.089305E+00   3.108726E+00   3.145792E+00   3.206785E+00   3.294665E+00   3.408741E+00   3.546058E+00   3.701222E+00   3.869360E+00   4.044188E+00   4.212911E+00   4.363896E+00   4.476834E+00   4.542762E+00   4.578530E+00   4.539457E+00   4.449998E+00   4.313860E+00   4.166955E+00   4.016912E+00   3.866448E+00   3.721226E+00   3.617209E+00   3.532043E+00   3.477530E+00   3.426562E+00   3.378078E+00   3.326835E+00   3.299306E+00   3.291306E+00   3.285423E+00   3.282741E+00   3.269358E+00   3.241832E+00   3.197989E+00   3.151822E+00   3.091498E+00   3.019102E+00   2.952916E+00   2.904643E+00   2.881281E+00   2.896804E+00   2.955803E+00   3.048247E+00   3.177396E+00   3.316396E+00   3.439312E+00   3.540813E+00   3.620123E+00   3.659682E+00   3.670757E+00   3.654380E+00   3.607622E+00   3.536663E+00   3.462917E+00   3.394720E+00   3.346508E+00   3.318164E+00   3.305669E+00   3.306716E+00   3.317225E+00   3.330723E+00   3.344637E+00   3.346160E+00   3.339663E+00   3.320295E+00   3.291572E+00   3.255577E+00   3.224157E+00   3.214336E+00   3.223324E+00   3.257021E+00   3.326836E+00   3.449669E+00   3.571709E+00   3.708179E+00   3.808256E+00   3.860958E+00   3.865959E+00   3.817526E+00   3.748186E+00   3.658908E+00   3.553131E+00   3.436107E+00   3.309268E+00   3.182745E+00   3.081993E+00   3.002690E+00   2.939503E+00   2.898977E+00   2.875550E+00   2.857838E+00   2.842626E+00   2.823134E+00   2.810535E+00   2.814544E+00   2.824053E+00   2.855809E+00   2.913308E+00   2.997030E+00   3.108447E+00   3.251801E+00   3.408280E+00   3.571041E+00   3.748604E+00   3.920046E+00   4.087019E+00   4.236405E+00   4.381882E+00   4.511769E+00   4.608207E+00   4.648798E+00   4.659261E+00   4.639291E+00   4.593781E+00   4.519230E+00   4.415734E+00   4.309605E+00   4.212525E+00   4.140099E+00   4.086689E+00   4.073759E+00   4.088611E+00   4.138989E+00   4.222856E+00   4.297552E+00   4.407200E+00   4.526230E+00   4.681448E+00   4.855183E+00   5.038546E+00   5.183308E+00   5.231110E+00   5.196123E+00   5.073325E+00   4.905846E+00   4.711043E+00   4.497972E+00   4.285199E+00   4.077720E+00   3.884008E+00   3.689893E+00   3.513513E+00   3.339447E+00   3.195231E+00   3.067320E+00   2.986389E+00   2.935898E+00   2.911015E+00   2.919213E+00   2.971729E+00   3.068384E+00   3.208054E+00   3.374060E+00   3.558304E+00   3.746653E+00   3.909820E+00   4.045792E+00   4.142433E+00   4.213426E+00   4.270812E+00   4.313157E+00   4.347986E+00   4.379221E+00   4.414547E+00   4.424831E+00   4.420006E+00   4.381838E+00   4.328511E+00   4.247609E+00   4.152916E+00   4.068347E+00   4.004929E+00   4.004075E+00   4.019006E+00   4.045051E+00   4.059796E+00   4.058208E+00   4.054976E+00   4.037005E+00   4.011851E+00   3.986759E+00   3.982339E+00
   3.911474E+00   3.831564E+00   3.749189E+00   3.665410E+00   3.598489E+00   3.527555E+00   3.482085E+00   3.448156E+00   3.426303E+00   3.389731E+00   3.342134E+00   3.261382E+00   3.174387E+00   3.070302E+00   2.974351E+00   2.897011E+00   2.853017E+00   2.845704E+00   2.865943E+00   2.912222E+00   2.976214E+00   3.078918E+00   3.215528E+00   3.387345E+00   3.576826E+00   3.793210E+00   4.037867E+00   4.276522E+00   4.495398E+00   4.657448E+00   4.768301E+00   4.801426E+00   4.762810E+00   4.652668E+00   4.500547E+00   4.292932E+00   4.082292E+00   3.863137E+00   3.679937E+00   3.528534E+00   3.415880E+00   3.325140E+00   3.258926E+00   3.194277E+00   3.126684E+00   3.063427E+00   3.038796E+00   3.013742E+00   3.011782E+00   3.010741E+00   3.004194E+00   2.979013E+00   2.952916E+00   2.897612E+00   2.834535E+00   2.772478E+00   2.717690E+00   2.691736E+00   2.709600E+00   2.779010E+00   2.893506E+00   3.038368E+00   3.196677E+00   3.347499E+00   3.464929E+00   3.536362E+00   3.565271E+00   3.554569E+00   3.505167E+00   3.429447E+00   3.323518E+00   3.222429E+00   3.129556E+00   3.062842E+00   3.020918E+00   3.000670E+00   3.008594E+00   3.033402E+00   3.074542E+00   3.111066E+00   3.131038E+00   3.131457E+00   3.116661E+00   3.074214E+00   3.034409E+00   2.993422E+00   2.965107E+00   2.957906E+00   2.984725E+00   3.066957E+00   3.196540E+00   3.362353E+00   3.524026E+00   3.668016E+00   3.738913E+00   3.748536E+00   3.707802E+00   3.629754E+00   3.533748E+00   3.403400E+00   3.255797E+00   3.101828E+00   2.953068E+00   2.817269E+00   2.714409E+00   2.633826E+00   2.576720E+00   2.543685E+00   2.525919E+00   2.512325E+00   2.502416E+00   2.501214E+00   2.520546E+00   2.552471E+00   2.595346E+00   2.671954E+00   2.769121E+00   2.892481E+00   3.056008E+00   3.236926E+00   3.429801E+00   3.652814E+00   3.878017E+00   4.097824E+00   4.299465E+00   4.472363E+00   4.633277E+00   4.738686E+00   4.800654E+00   4.799666E+00   4.755029E+00   4.666822E+00   4.541689E+00   4.403186E+00   4.262528E+00   4.145051E+00   4.047090E+00   4.002174E+00   3.997804E+00   4.043000E+00   4.128204E+00   4.227161E+00   4.359682E+00   4.515376E+00   4.711286E+00   4.935173E+00   5.205503E+00   5.455939E+00   5.644044E+00   5.718070E+00   5.676047E+00   5.513505E+00   5.266527E+00   4.982117E+00   4.678193E+00   4.378412E+00   4.085193E+00   3.801520E+00   3.529447E+00   3.281636E+00   3.065871E+00   2.875660E+00   2.743361E+00   2.652240E+00   2.600383E+00   2.586797E+00   2.616820E+00   2.692768E+00   2.816059E+00   2.983814E+00   3.191581E+00   3.408231E+00   3.631836E+00   3.835981E+00   4.016205E+00   4.146020E+00   4.243644E+00   4.309431E+00   4.361442E+00   4.399975E+00   4.422922E+00   4.430361E+00   4.437225E+00   4.415416E+00   4.373911E+00   4.306231E+00   4.231511E+00   4.167229E+00   4.107518E+00   4.083202E+00   4.095610E+00   4.140618E+00   4.191457E+00   4.206476E+00   4.196459E+00   4.158278E+00   4.116697E+00   4.076121E+00   4.039317E+00   4.009647E+00
   3.896428E+00   3.808142E+00   3.706755E+00   3.617226E+00   3.544157E+00   3.483419E+00   3.426392E+00   3.386241E+00   3.348414E+00   3.304789E+00   3.237449E+00   3.161822E+00   3.060142E+00   2.958342E+00   2.860753E+00   2.787874E+00   2.737725E+00   2.721815E+00   2.738589E+00   2.785279E+00   2.846729E+00   2.943960E+00   3.080988E+00   3.263623E+00   3.476197E+00   3.718082E+00   3.983543E+00   4.264892E+00   4.516757E+00   4.716615E+00   4.850662E+00   4.916006E+00   4.878001E+00   4.797061E+00   4.627354E+00   4.407750E+00   4.159472E+00   3.904323E+00   3.671117E+00   3.491989E+00   3.347430E+00   3.228647E+00   3.124265E+00   3.027956E+00   2.943362E+00   2.872656E+00   2.826741E+00   2.791023E+00   2.786210E+00   2.799726E+00   2.824583E+00   2.847585E+00   2.863876E+00   2.863130E+00   2.829888E+00   2.784552E+00   2.741354E+00   2.725845E+00   2.748611E+00   2.821284E+00   2.940897E+00   3.095227E+00   3.255809E+00   3.401008E+00   3.504066E+00   3.550669E+00   3.540499E+00   3.482633E+00   3.396431E+00   3.283190E+00   3.157491E+00   3.024500E+00   2.914149E+00   2.824681E+00   2.781065E+00   2.771914E+00   2.795134E+00   2.835635E+00   2.895448E+00   2.947325E+00   2.992050E+00   3.008100E+00   2.995887E+00   2.955212E+00   2.894296E+00   2.837126E+00   2.786915E+00   2.764526E+00   2.784129E+00   2.852077E+00   2.985026E+00   3.145622E+00   3.331682E+00   3.492104E+00   3.600936E+00   3.640486E+00   3.616497E+00   3.548609E+00   3.453641E+00   3.323575E+00   3.169044E+00   2.995707E+00   2.832772E+00   2.694786E+00   2.574020E+00   2.487956E+00   2.434084E+00   2.393682E+00   2.381092E+00   2.367074E+00   2.370687E+00   2.385247E+00   2.415971E+00   2.466221E+00   2.530028E+00   2.616306E+00   2.714472E+00   2.835596E+00   2.981923E+00   3.154972E+00   3.350181E+00   3.571276E+00   3.813337E+00   4.059121E+00   4.280686E+00   4.464222E+00   4.608875E+00   4.704118E+00   4.741656E+00   4.729071E+00   4.662330E+00   4.551765E+00   4.400246E+00   4.236324E+00   4.082597E+00   3.944884E+00   3.856719E+00   3.807576E+00   3.816563E+00   3.887907E+00   4.005410E+00   4.150250E+00   4.329452E+00   4.553878E+00   4.811735E+00   5.114938E+00   5.422789E+00   5.737964E+00   5.979585E+00   6.085695E+00   6.044857E+00   5.856797E+00   5.552149E+00   5.189477E+00   4.811188E+00   4.452784E+00   4.093410E+00   3.749265E+00   3.425651E+00   3.139009E+00   2.889784E+00   2.700994E+00   2.551062E+00   2.445459E+00   2.391803E+00   2.380508E+00   2.412971E+00   2.497718E+00   2.634186E+00   2.831314E+00   3.050067E+00   3.292040E+00   3.532044E+00   3.766653E+00   3.958240E+00   4.113319E+00   4.209551E+00   4.281784E+00   4.319350E+00   4.339470E+00   4.337402E+00   4.334850E+00   4.302863E+00   4.280678E+00   4.231182E+00   4.189139E+00   4.154892E+00   4.129384E+00   4.138446E+00   4.184958E+00   4.258646E+00   4.340806E+00   4.393973E+00   4.415648E+00   4.386152E+00   4.323431E+00   4.237141E+00   4.156147E+00   4.092052E+00   4.036577E+00
   3.901823E+00   3.809954E+00   3.713228E+00   3.630432E+00   3.558752E+00   3.493198E+00   3.438268E+00   3.386764E+00   3.350164E+00   3.288784E+00   3.216361E+00   3.121498E+00   3.023325E+00   2.922507E+00   2.831129E+00   2.752956E+00   2.701534E+00   2.678564E+00   2.699613E+00   2.742381E+00   2.817465E+00   2.926348E+00   3.056077E+00   3.230112E+00   3.438242E+00   3.675395E+00   3.932583E+00   4.187699E+00   4.435422E+00   4.642004E+00   4.792396E+00   4.872492E+00   4.908819E+00   4.864633E+00   4.746640E+00   4.553956E+00   4.323743E+00   4.030021E+00   3.758840E+00   3.508435E+00   3.313771E+00   3.156321E+00   3.022371E+00   2.903442E+00   2.799398E+00   2.721127E+00   2.670934E+00   2.638829E+00   2.636455E+00   2.670110E+00   2.738506E+00   2.822740E+00   2.909859E+00   2.960378E+00   2.975959E+00   2.960110E+00   2.945291E+00   2.944644E+00   2.982686E+00   3.057302E+00   3.184070E+00   3.340969E+00   3.498223E+00   3.626565E+00   3.702385E+00   3.704578E+00   3.642598E+00   3.534185E+00   3.393369E+00   3.236972E+00   3.073402E+00   2.923432E+00   2.787734E+00   2.690655E+00   2.641149E+00   2.635703E+00   2.664783E+00   2.728889E+00   2.799622E+00   2.865865E+00   2.917881E+00   2.931120E+00   2.906035E+00   2.851656E+00   2.781817E+00   2.705114E+00   2.636869E+00   2.599479E+00   2.599424E+00   2.654057E+00   2.769964E+00   2.935925E+00   3.119378E+00   3.298806E+00   3.442239E+00   3.518253E+00   3.534170E+00   3.508530E+00   3.444606E+00   3.340627E+00   3.192585E+00   3.012922E+00   2.849334E+00   2.706625E+00   2.596182E+00   2.518817E+00   2.464386E+00   2.428416E+00   2.404750E+00   2.406975E+00   2.422329E+00   2.448680E+00   2.486802E+00   2.553386E+00   2.621913E+00   2.698276E+00   2.789831E+00   2.883241E+00   3.000563E+00   3.141139E+00   3.319938E+00   3.524119E+00   3.753679E+00   3.991799E+00   4.188076E+00   4.355751E+00   4.461538E+00   4.499885E+00   4.505779E+00   4.485182E+00   4.419205E+00   4.309959E+00   4.154881E+00   4.001971E+00   3.840768E+00   3.702169E+00   3.601413E+00   3.566124E+00   3.585282E+00   3.674936E+00   3.811914E+00   4.004507E+00   4.233368E+00   4.506049E+00   4.817456E+00   5.152438E+00   5.490272E+00   5.837902E+00   6.114087E+00   6.269625E+00   6.252126E+00   6.082775E+00   5.760003E+00   5.356256E+00   4.928716E+00   4.505474E+00   4.099737E+00   3.721010E+00   3.369198E+00   3.066860E+00   2.811566E+00   2.601478E+00   2.445853E+00   2.332659E+00   2.270941E+00   2.255123E+00   2.288453E+00   2.376396E+00   2.523498E+00   2.715528E+00   2.944981E+00   3.190964E+00   3.443381E+00   3.689099E+00   3.913475E+00   4.080051E+00   4.192863E+00   4.246714E+00   4.279456E+00   4.268387E+00   4.247810E+00   4.206515E+00   4.172453E+00   4.134953E+00   4.107728E+00   4.080956E+00   4.088178E+00   4.122425E+00   4.193277E+00   4.300752E+00   4.423496E+00   4.541047E+00   4.622945E+00   4.633850E+00   4.597924E+00   4.522592E+00   4.414568E+00   4.300217E+00   4.189149E+00   4.089329E+00
   3.927786E+00   3.860645E+00   3.788654E+00   3.723222E+00   3.643720E+00   3.575033E+00   3.507085E+00   3.459998E+00   3.412388E+00   3.347414E+00   3.262666E+00   3.163895E+00   3.052619E+00   2.955919E+00   2.864575E+00   2.791094E+00   2.733041E+00   2.715958E+00   2.734425E+00   2.797675E+00   2.881403E+00   2.997423E+00   3.127696E+00   3.292807E+00   3.480230E+00   3.681118E+00   3.901438E+00   4.138144E+00   4.358515E+00   4.559361E+00   4.716291E+00   4.837280E+00   4.928977E+00   4.954565E+00   4.886549E+00   4.749082E+00   4.528868E+00   4.226765E+00   3.907994E+00   3.603935E+00   3.350714E+00   3.144297E+00   2.970500E+00   2.836740E+00   2.727964E+00   2.642459E+00   2.593496E+00   2.572280E+00   2.599495E+00   2.666756E+00   2.775899E+00   2.913175E+00   3.051343E+00   3.165792E+00   3.227839E+00   3.263693E+00   3.281044E+00   3.300982E+00   3.350788E+00   3.445446E+00   3.576304E+00   3.732004E+00   3.893983E+00   4.002199E+00   4.042119E+00   3.994869E+00   3.872161E+00   3.710388E+00   3.517249E+00   3.312661E+00   3.124678E+00   2.945741E+00   2.802687E+00   2.693851E+00   2.638338E+00   2.633609E+00   2.659000E+00   2.716226E+00   2.789428E+00   2.847115E+00   2.889352E+00   2.890156E+00   2.852679E+00   2.789872E+00   2.706733E+00   2.613930E+00   2.526848E+00   2.465639E+00   2.452625E+00   2.498165E+00   2.602026E+00   2.761094E+00   2.956087E+00   3.156466E+00   3.335289E+00   3.460828E+00   3.530620E+00   3.550550E+00   3.522285E+00   3.436745E+00   3.299528E+00   3.143886E+00   2.984427E+00   2.847692E+00   2.743739E+00   2.675400E+00   2.636104E+00   2.606162E+00   2.594845E+00   2.592335E+00   2.609456E+00   2.639521E+00   2.691470E+00   2.750913E+00   2.813114E+00   2.870769E+00   2.921423E+00   2.981044E+00   3.060610E+00   3.169435E+00   3.313480E+00   3.483014E+00   3.679484E+00   3.872030E+00   4.036567E+00   4.143194E+00   4.185597E+00   4.176446E+00   4.163621E+00   4.130097E+00   4.092228E+00   4.018030E+00   3.917654E+00   3.791569E+00   3.648428E+00   3.509440E+00   3.405164E+00   3.358513E+00   3.389198E+00   3.480144E+00   3.632675E+00   3.854534E+00   4.108293E+00   4.401360E+00   4.727643E+00   5.082187E+00   5.440811E+00   5.797424E+00   6.092876E+00   6.275558E+00   6.311141E+00   6.158917E+00   5.833094E+00   5.430652E+00   4.999362E+00   4.559513E+00   4.133946E+00   3.732556E+00   3.385989E+00   3.081282E+00   2.821736E+00   2.606867E+00   2.437526E+00   2.311602E+00   2.234483E+00   2.206616E+00   2.235861E+00   2.315171E+00   2.456087E+00   2.644211E+00   2.873534E+00   3.128091E+00   3.389256E+00   3.644484E+00   3.861211E+00   4.030008E+00   4.142767E+00   4.209173E+00   4.220196E+00   4.215960E+00   4.167873E+00   4.131060E+00   4.083650E+00   4.053189E+00   4.027079E+00   4.033933E+00   4.065333E+00   4.129964E+00   4.237276E+00   4.388119E+00   4.552677E+00   4.687397E+00   4.764121E+00   4.776147E+00   4.729185E+00   4.654560E+00   4.559018E+00   4.432459E+00   4.291462E+00   4.145060E+00
   3.979261E+00   3.956134E+00   3.916162E+00   3.846224E+00   3.787313E+00   3.702314E+00   3.640392E+00   3.585170E+00   3.538412E+00   3.469610E+00   3.374312E+00   3.260346E+00   3.136625E+00   3.032142E+00   2.942513E+00   2.871136E+00   2.819137E+00   2.790367E+00   2.819644E+00   2.883123E+00   2.984088E+00   3.110130E+00   3.236817E+00   3.391383E+00   3.556787E+00   3.740097E+00   3.941473E+00   4.130808E+00   4.331118E+00   4.529025E+00   4.722216E+00   4.876209E+00   4.993851E+00   5.067940E+00   5.074383E+00   4.980068E+00   4.778704E+00   4.475247E+00   4.123570E+00   3.773269E+00   3.475871E+00   3.218944E+00   3.015882E+00   2.854765E+00   2.731208E+00   2.650333E+00   2.601849E+00   2.606046E+00   2.658539E+00   2.753329E+00   2.901187E+00   3.082915E+00   3.264029E+00   3.424734E+00   3.535089E+00   3.600180E+00   3.640304E+00   3.670324E+00   3.741641E+00   3.854777E+00   4.002961E+00   4.173461E+00   4.335598E+00   4.434217E+00   4.437254E+00   4.350815E+00   4.188190E+00   3.979286E+00   3.748933E+00   3.519730E+00   3.295071E+00   3.103954E+00   2.943309E+00   2.832227E+00   2.759465E+00   2.729939E+00   2.734958E+00   2.771508E+00   2.823545E+00   2.866464E+00   2.880050E+00   2.862446E+00   2.808224E+00   2.741623E+00   2.651110E+00   2.550699E+00   2.460012E+00   2.393967E+00   2.382238E+00   2.432470E+00   2.542795E+00   2.699149E+00   2.900638E+00   3.110409E+00   3.316255E+00   3.494141E+00   3.620691E+00   3.673976E+00   3.670462E+00   3.599423E+00   3.483774E+00   3.343837E+00   3.200152E+00   3.071890E+00   2.981920E+00   2.925987E+00   2.895763E+00   2.879428E+00   2.873984E+00   2.873259E+00   2.885490E+00   2.914498E+00   2.965470E+00   3.022657E+00   3.066454E+00   3.108530E+00   3.122247E+00   3.139050E+00   3.170551E+00   3.221039E+00   3.308431E+00   3.420856E+00   3.553285E+00   3.683040E+00   3.774479E+00   3.814259E+00   3.802638E+00   3.771557E+00   3.744227E+00   3.736959E+00   3.735768E+00   3.736355E+00   3.699452E+00   3.620463E+00   3.521518E+00   3.398503E+00   3.292065E+00   3.229922E+00   3.249986E+00   3.343819E+00   3.513083E+00   3.754034E+00   4.030774E+00   4.333083E+00   4.646041E+00   4.978872E+00   5.325993E+00   5.670616E+00   5.978569E+00   6.190485E+00   6.240256E+00   6.110878E+00   5.835259E+00   5.473239E+00   5.047890E+00   4.617954E+00   4.185821E+00   3.798570E+00   3.451747E+00   3.153659E+00   2.899853E+00   2.673387E+00   2.492584E+00   2.357403E+00   2.272813E+00   2.236625E+00   2.258240E+00   2.327366E+00   2.455670E+00   2.632191E+00   2.854180E+00   3.111230E+00   3.386068E+00   3.643166E+00   3.848791E+00   3.999916E+00   4.092168E+00   4.131594E+00   4.142551E+00   4.116094E+00   4.074437E+00   4.032297E+00   3.995142E+00   3.959981E+00   3.949515E+00   3.954965E+00   4.000412E+00   4.075820E+00   4.202709E+00   4.371968E+00   4.536886E+00   4.675373E+00   4.758921E+00   4.768041E+00   4.727922E+00   4.655771E+00   4.566741E+00   4.446459E+00   4.311233E+00   4.158990E+00
   4.043950E+00   4.084257E+00   4.071556E+00   4.037430E+00   3.961057E+00   3.885208E+00   3.813687E+00   3.759484E+00   3.692925E+00   3.603923E+00   3.479806E+00   3.349842E+00   3.220956E+00   3.113681E+00   3.027186E+00   2.967979E+00   2.913093E+00   2.900383E+00   2.923803E+00   2.988545E+00   3.087693E+00   3.214015E+00   3.341743E+00   3.478458E+00   3.627183E+00   3.797462E+00   3.965910E+00   4.147975E+00   4.342140E+00   4.552115E+00   4.756623E+00   4.954914E+00   5.105312E+00   5.217600E+00   5.243780E+00   5.179986E+00   5.008906E+00   4.736105E+00   4.380346E+00   4.003568E+00   3.651489E+00   3.363478E+00   3.126436E+00   2.944807E+00   2.819351E+00   2.735562E+00   2.706785E+00   2.716528E+00   2.786983E+00   2.908700E+00   3.080099E+00   3.272000E+00   3.457819E+00   3.628099E+00   3.747776E+00   3.826065E+00   3.874345E+00   3.941036E+00   4.036123E+00   4.175661E+00   4.366683E+00   4.566008E+00   4.748967E+00   4.855917E+00   4.847383E+00   4.723746E+00   4.529911E+00   4.300983E+00   4.056510E+00   3.805163E+00   3.577361E+00   3.378105E+00   3.201203E+00   3.065052E+00   2.967410E+00   2.905143E+00   2.885473E+00   2.880043E+00   2.895682E+00   2.904378E+00   2.899530E+00   2.858763E+00   2.798306E+00   2.723953E+00   2.642827E+00   2.555119E+00   2.475775E+00   2.430725E+00   2.431498E+00   2.497074E+00   2.613712E+00   2.782112E+00   2.975987E+00   3.193416E+00   3.412220E+00   3.608049E+00   3.763343E+00   3.837918E+00   3.842820E+00   3.784634E+00   3.672602E+00   3.546783E+00   3.415864E+00   3.298656E+00   3.212405E+00   3.164564E+00   3.148822E+00   3.143651E+00   3.147969E+00   3.159918E+00   3.178941E+00   3.207631E+00   3.260309E+00   3.311072E+00   3.340555E+00   3.345928E+00   3.324578E+00   3.287849E+00   3.258249E+00   3.244883E+00   3.259627E+00   3.297822E+00   3.354208E+00   3.409915E+00   3.442156E+00   3.444126E+00   3.415099E+00   3.382207E+00   3.375065E+00   3.390289E+00   3.444994E+00   3.502954E+00   3.535810E+00   3.519372E+00   3.462285E+00   3.369937E+00   3.284776E+00   3.228227E+00   3.243336E+00   3.322824E+00   3.491325E+00   3.741992E+00   4.034659E+00   4.339087E+00   4.636770E+00   4.932102E+00   5.240223E+00   5.557435E+00   5.847218E+00   6.060126E+00   6.143788E+00   6.063529E+00   5.840733E+00   5.502358E+00   5.103134E+00   4.675883E+00   4.270087E+00   3.886393E+00   3.560409E+00   3.278305E+00   3.028582E+00   2.793913E+00   2.601172E+00   2.452645E+00   2.352332E+00   2.309327E+00   2.314307E+00   2.382729E+00   2.499911E+00   2.669197E+00   2.872137E+00   3.122924E+00   3.385290E+00   3.627584E+00   3.815039E+00   3.944018E+00   4.011905E+00   4.035653E+00   4.031749E+00   3.990105E+00   3.960716E+00   3.940873E+00   3.914743E+00   3.893074E+00   3.875498E+00   3.878118E+00   3.913678E+00   3.978655E+00   4.088112E+00   4.228969E+00   4.381519E+00   4.500668E+00   4.581292E+00   4.593924E+00   4.575620E+00   4.527386E+00   4.442602E+00   4.360676E+00   4.255014E+00   4.139203E+00
   4.118198E+00   4.210846E+00   4.262791E+00   4.250137E+00   4.208620E+00   4.125237E+00   4.065217E+00   3.997347E+00   3.909115E+00   3.779386E+00   3.618446E+00   3.458599E+00   3.314911E+00   3.196209E+00   3.115162E+00   3.067597E+00   3.035551E+00   3.023788E+00   3.036901E+00   3.090473E+00   3.169994E+00   3.275770E+00   3.403198E+00   3.531703E+00   3.672230E+00   3.816476E+00   3.980173E+00   4.159801E+00   4.383735E+00   4.596674E+00   4.814077E+00   5.006112E+00   5.181620E+00   5.289330E+00   5.335800E+00   5.284982E+00   5.155871E+00   4.924713E+00   4.611250E+00   4.239050E+00   3.877273E+00   3.554046E+00   3.294915E+00   3.100966E+00   2.959620E+00   2.877042E+00   2.846725E+00   2.876459E+00   2.957472E+00   3.078030E+00   3.237954E+00   3.413449E+00   3.595173E+00   3.736158E+00   3.842542E+00   3.909839E+00   3.973310E+00   4.058059E+00   4.187574E+00   4.376420E+00   4.611861E+00   4.859148E+00   5.051407E+00   5.164714E+00   5.161901E+00   5.044025E+00   4.842667E+00   4.610015E+00   4.365622E+00   4.127218E+00   3.916307E+00   3.719590E+00   3.534323E+00   3.381376E+00   3.237684E+00   3.137424E+00   3.067404E+00   3.019446E+00   2.985952E+00   2.955159E+00   2.920445E+00   2.866968E+00   2.804441E+00   2.742115E+00   2.669449E+00   2.616839E+00   2.576224E+00   2.566123E+00   2.601522E+00   2.682100E+00   2.829170E+00   3.010968E+00   3.223308E+00   3.450252E+00   3.653733E+00   3.813101E+00   3.943186E+00   4.020510E+00   4.009102E+00   3.952326E+00   3.841601E+00   3.726309E+00   3.610036E+00   3.506271E+00   3.425678E+00   3.373219E+00   3.342682E+00   3.343817E+00   3.354315E+00   3.379918E+00   3.413460E+00   3.449586E+00   3.492458E+00   3.513255E+00   3.511338E+00   3.486215E+00   3.432923E+00   3.358466E+00   3.270335E+00   3.189913E+00   3.132672E+00   3.100252E+00   3.091264E+00   3.086224E+00   3.077358E+00   3.064392E+00   3.046219E+00   3.046571E+00   3.069903E+00   3.129133E+00   3.219922E+00   3.329927E+00   3.413476E+00   3.460975E+00   3.454285E+00   3.416095E+00   3.354909E+00   3.320003E+00   3.334153E+00   3.425359E+00   3.583735E+00   3.818403E+00   4.091292E+00   4.376425E+00   4.642903E+00   4.915219E+00   5.189225E+00   5.481906E+00   5.739347E+00   5.937020E+00   6.021126E+00   5.969542E+00   5.783614E+00   5.507019E+00   5.158713E+00   4.774260E+00   4.398978E+00   4.037345E+00   3.707998E+00   3.425402E+00   3.169421E+00   2.936427E+00   2.729748E+00   2.576936E+00   2.473004E+00   2.423222E+00   2.430999E+00   2.485673E+00   2.602119E+00   2.752297E+00   2.949144E+00   3.173202E+00   3.409384E+00   3.627171E+00   3.804340E+00   3.901405E+00   3.955602E+00   3.968886E+00   3.953542E+00   3.917909E+00   3.893184E+00   3.872855E+00   3.862332E+00   3.836248E+00   3.818022E+00   3.802453E+00   3.815811E+00   3.857303E+00   3.933879E+00   4.037675E+00   4.145092E+00   4.243783E+00   4.295254E+00   4.320584E+00   4.320661E+00   4.298109E+00   4.258232E+00   4.217137E+00   4.165369E+00   4.084795E+00