# LPF package for  MODFLOW-2005, generated by Flopy.
         0    -1E+30         0  
         0
         0
   1.000000E+00
         0
         0
INTERNAL               1 (200E15.6) -1 #hk layer 1                    
   3.962839E+00   3.935361E+00   3.904754E+00   3.862777E+00   3.834060E+00   3.813660E+00   3.802322E+00   3.789585E+00   3.787963E+00   3.761682E+00   3.732217E+00   3.689157E+00   3.641893E+00   3.585455E+00   3.527833E+00   3.488911E+00   3.471394E+00   3.475709E+00   3.487970E+00   3.515079E+00   3.555605E+00   3.610346E+00   3.676393E+00   3.769922E+00   3.856627E+00   3.942822E+00   4.024195E+00   4.102770E+00   4.173508E+00   4.228984E+00   4.263542E+00   4.278179E+00   4.262439E+00   4.208661E+00   4.143986E+00   4.060858E+00   3.983433E+00   3.902235E+00   3.837039E+00   3.780107E+00   3.734046E+00   3.704696E+00   3.677333E+00   3.641145E+00   3.611843E+00   3.595938E+00   3.597613E+00   3.596222E+00   3.596882E+00   3.587554E+00   3.565808E+00   3.538440E+00   3.502615E+00   3.460965E+00   3.425255E+00   3.380527E+00   3.348229E+00   3.330812E+00   3.342788E+00   3.384977E+00   3.438080E+00   3.508833E+00   3.589150E+00   3.667674E+00   3.725002E+00   3.774233E+00   3.803776E+00   3.823972E+00   3.825888E+00   3.805916E+00   3.768459E+00   3.724046E+00   3.683648E+00   3.658577E+00   3.654468E+00   3.646902E+00   3.655173E+00   3.651490E+00   3.644315E+00   3.634917E+00   3.635545E+00   3.623558E+00   3.611251E+00   3.599336E+00   3.582973E+00   3.572162E+00   3.569981E+00   3.582339E+00   3.598337E+00   3.649166E+00   3.715075E+00   3.791113E+00   3.863501E+00   3.918536E+00   3.938249E+00   3.934440E+00   3.911912E+00   3.868240E+00   3.820228E+00   3.755231E+00   3.688765E+00   3.614290E+00   3.538720E+00   3.483402E+00   3.436657E+00   3.398447E+00   3.375261E+00   3.354160E+00   3.352215E+00   3.340693E+00   3.328424E+00   3.308732E+00   3.299146E+00   3.304823E+00   3.313663E+00   3.343817E+00   3.403232E+00   3.481750E+00   3.577280E+00   3.681770E+00   3.773019E+00   3.873274E+00   3.962916E+00   4.047242E+00   4.126958E+00   4.192460E+00   4.268055E+00   4.325013E+00   4.356632E+00   4.372915E+00   4.360091E+00   4.335443E+00   4.308239E+00   4.267459E+00   4.212842E+00   4.168926E+00   4.110923E+00   4.072200E+00   4.050312E+00   4.051454E+00   4.074161E+00   4.106734E+00   4.158733E+00   4.213269E+00   4.279490E+00   4.349098E+00   4.431412E+00   4.525243E+00   4.590815E+00   4.617078E+00   4.596023E+00   4.545552E+00   4.458110E+00   4.371194E+00   4.269521E+00   4.164284E+00   4.064307E+00   3.962393E+00   3.866783E+00   3.760988E+00   3.673791E+00   3.573280E+00   3.494018E+00   3.440188E+00   3.402035E+00   3.385243E+00   3.389272E+00   3.415340E+00   3.461535E+00   3.545051E+00   3.647919E+00   3.757036E+00   3.870820E+00   3.969858E+00   4.043752E+00   4.095023E+00   4.129622E+00   4.161026E+00   4.187520E+00   4.202550E+00   4.222343E+00   4.238408E+00   4.251774E+00   4.250443E+00   4.238925E+00   4.202197E+00   4.153092E+00   4.089935E+00   4.032068E+00   3.993648E+00   3.975596E+00   3.977448E+00   3.985384E+00   4.000434E+00   4.005284E+00   4.010337E+00   4.010013E+00   3.991236E+00   3.983213E+00   3.979297E+00
   3.931176E+00   3.887897E+00   3.830032E+00   3.762908E+00   3.694899E+00   3.655911E+00   3.623941E+00   3.600171E+00   3.585897E+00   3.569458E+00   3.518540E+00   3.459244E+00   3.366522E+00   3.277853E+00   3.189237E+00   3.124525E+00   3.088298E+00   3.089645E+00   3.109074E+00   3.146148E+00   3.207155E+00   3.295045E+00   3.409127E+00   3.546450E+00   3.701612E+00   3.869739E+00   4.044549E+00   4.213242E+00   4.364183E+00   4.477061E+00   4.542916E+00   4.578594E+00   4.539422E+00   4.449873E+00   4.313654E+00   4.166676E+00   4.016563E+00   3.866042E+00   3.720775E+00   3.616724E+00   3.531533E+00   3.477009E+00   3.426049E+00   3.377586E+00   3.326380E+00   3.298906E+00   3.290974E+00   3.285170E+00   3.282569E+00   3.269269E+00   3.241819E+00   3.198042E+00   3.151933E+00   3.091662E+00   3.019309E+00   2.953161E+00   2.904922E+00   2.881592E+00   2.897141E+00   2.956159E+00   3.048617E+00   3.177772E+00   3.316764E+00   3.439650E+00   3.541102E+00   3.620352E+00   3.659840E+00   3.670842E+00   3.654390E+00   3.607556E+00   3.536520E+00   3.462701E+00   3.394439E+00   3.346174E+00   3.317791E+00   3.305266E+00   3.306298E+00   3.316813E+00   3.330323E+00   3.344265E+00   3.345821E+00   3.339363E+00   3.320039E+00   3.291370E+00   3.255432E+00   3.224071E+00   3.214311E+00   3.223359E+00   3.257115E+00   3.326986E+00   3.449881E+00   3.571974E+00   3.708480E+00   3.808573E+00   3.861268E+00   3.866239E+00   3.817755E+00   3.748360E+00   3.659026E+00   3.553196E+00   3.436122E+00   3.309233E+00   3.182664E+00   3.081873E+00   3.002542E+00   2.939328E+00   2.898778E+00   2.875336E+00   2.857611E+00   2.842385E+00   2.822883E+00   2.810272E+00   2.814268E+00   2.823765E+00   2.855514E+00   2.913009E+00   2.996736E+00   3.108163E+00   3.251531E+00   3.408026E+00   3.570798E+00   3.748369E+00   3.919811E+00   4.086783E+00   4.236164E+00   4.381631E+00   4.511506E+00   4.607931E+00   4.648515E+00   4.658978E+00   4.639011E+00   4.593513E+00   4.518976E+00   4.415496E+00   4.309381E+00   4.212317E+00   4.139914E+00   4.086524E+00   4.073603E+00   4.088459E+00   4.138837E+00   4.222695E+00   4.297381E+00   4.407027E+00   4.526056E+00   4.681278E+00   4.855019E+00   5.038402E+00   5.183187E+00   5.231010E+00   5.196045E+00   5.073261E+00   4.905797E+00   4.711002E+00   4.497942E+00   4.285182E+00   4.077717E+00   3.884012E+00   3.689906E+00   3.513528E+00   3.339468E+00   3.195258E+00   3.067355E+00   2.986445E+00   2.935977E+00   2.911116E+00   2.919343E+00   2.971888E+00   3.068578E+00   3.208277E+00   3.374309E+00   3.558581E+00   3.746960E+00   3.910151E+00   4.046135E+00   4.142775E+00   4.213759E+00   4.271127E+00   4.313448E+00   4.348259E+00   4.379481E+00   4.414801E+00   4.425074E+00   4.420233E+00   4.382039E+00   4.328683E+00   4.247758E+00   4.153039E+00   4.068438E+00   4.004995E+00   4.004115E+00   4.019024E+00   4.045059E+00   4.059807E+00   4.058226E+00   4.054999E+00   4.037033E+00   4.011877E+00   3.986781E+00   3.982350E+00
   3.911550E+00   3.831717E+00   3.749417E+00   3.665709E+00   3.598855E+00   3.527985E+00   3.482567E+00   3.448674E+00   3.426840E+00   3.390275E+00   3.342666E+00   3.261886E+00   3.174870E+00   3.070760E+00   2.974790E+00   2.897436E+00   2.853439E+00   2.846131E+00   2.866380E+00   2.912676E+00   2.976684E+00   3.079399E+00   3.216018E+00   3.387841E+00   3.577321E+00   3.793690E+00   4.038323E+00   4.276941E+00   4.495765E+00   4.657747E+00   4.768508E+00   4.801521E+00   4.762782E+00   4.652524E+00   4.500306E+00   4.292605E+00   4.081884E+00   3.862659E+00   3.679405E+00   3.527961E+00   3.415279E+00   3.324526E+00   3.258316E+00   3.193691E+00   3.126139E+00   3.062949E+00   3.038399E+00   3.013438E+00   3.011575E+00   3.010633E+00   3.004183E+00   2.979091E+00   2.953079E+00   2.897847E+00   2.834832E+00   2.772828E+00   2.718086E+00   2.692168E+00   2.710063E+00   2.779496E+00   2.894005E+00   3.038866E+00   3.197152E+00   3.347931E+00   3.465297E+00   3.536643E+00   3.565448E+00   3.554637E+00   3.505135E+00   3.429317E+00   3.323295E+00   3.222126E+00   3.129187E+00   3.062422E+00   3.020458E+00   3.000189E+00   3.008101E+00   3.032915E+00   3.074069E+00   3.110615E+00   3.130619E+00   3.131077E+00   3.116331E+00   3.073947E+00   3.034210E+00   2.993293E+00   2.965050E+00   2.957921E+00   2.984814E+00   3.067123E+00   3.196789E+00   3.362675E+00   3.524405E+00   3.668426E+00   3.739320E+00   3.748902E+00   3.708103E+00   3.629978E+00   3.533895E+00   3.403468E+00   3.255795E+00   3.101760E+00   2.952944E+00   2.817100E+00   2.714204E+00   2.633590E+00   2.576459E+00   2.543404E+00   2.525624E+00   2.512019E+00   2.502101E+00   2.500892E+00   2.520213E+00   2.552129E+00   2.595000E+00   2.671612E+00   2.768786E+00   2.892159E+00   3.055701E+00   3.236631E+00   3.429516E+00   3.652531E+00   3.877727E+00   4.097528E+00   4.299155E+00   4.472039E+00   4.632937E+00   4.738336E+00   4.800288E+00   4.799291E+00   4.754657E+00   4.666463E+00   4.541344E+00   4.402856E+00   4.262214E+00   4.144756E+00   4.046816E+00   4.001915E+00   3.997559E+00   4.042765E+00   4.127978E+00   4.226933E+00   4.359448E+00   4.515142E+00   4.711053E+00   4.934958E+00   5.205315E+00   5.455791E+00   5.643936E+00   5.717999E+00   5.676009E+00   5.513489E+00   5.266522E+00   4.982112E+00   4.678184E+00   4.378408E+00   4.085192E+00   3.801525E+00   3.529449E+00   3.281638E+00   3.065870E+00   2.875666E+00   2.743380E+00   2.652278E+00   2.600450E+00   2.586897E+00   2.616959E+00   2.692950E+00   2.816284E+00   2.984084E+00   3.191894E+00   3.408584E+00   3.632226E+00   3.836406E+00   4.016652E+00   4.146468E+00   4.244081E+00   4.309846E+00   4.361830E+00   4.400335E+00   4.423265E+00   4.430683E+00   4.437531E+00   4.415701E+00   4.374173E+00   4.306473E+00   4.231734E+00   4.167430E+00   4.107694E+00   4.083353E+00   4.095738E+00   4.140727E+00   4.191550E+00   4.206559E+00   4.196541E+00   4.158358E+00   4.116776E+00   4.076194E+00   4.039371E+00   4.009677E+00
   3.896505E+00   3.808297E+00   3.706990E+00   3.617534E+00   3.544535E+00   3.483863E+00   3.426897E+00   3.386787E+00   3.348987E+00   3.305373E+00   3.238023E+00   3.162377E+00   3.060672E+00   2.958846E+00   2.861232E+00   2.788339E+00   2.738185E+00   2.722280E+00   2.739063E+00   2.785767E+00   2.847223E+00   2.944461E+00   3.081497E+00   3.264138E+00   3.476712E+00   3.718581E+00   3.984016E+00   4.265325E+00   4.517134E+00   4.716921E+00   4.850879E+00   4.916118E+00   4.877995E+00   4.796946E+00   4.627139E+00   4.407452E+00   4.159095E+00   3.903874E+00   3.670612E+00   3.491441E+00   3.346851E+00   3.228052E+00   3.123672E+00   3.027382E+00   2.942826E+00   2.872183E+00   2.826349E+00   2.790723E+00   2.786006E+00   2.799623E+00   2.824584E+00   2.847693E+00   2.864088E+00   2.863441E+00   2.830280E+00   2.785012E+00   2.741870E+00   2.726406E+00   2.749204E+00   2.821901E+00   2.941523E+00   3.095841E+00   3.256380E+00   3.401511E+00   3.504473E+00   3.550953E+00   3.540646E+00   3.482647E+00   3.396333E+00   3.282992E+00   3.157208E+00   3.024143E+00   2.913738E+00   2.824226E+00   2.780586E+00   2.771421E+00   2.794638E+00   2.835142E+00   2.894966E+00   2.946861E+00   2.991610E+00   3.007695E+00   2.995525E+00   2.954910E+00   2.894057E+00   2.836956E+00   2.786819E+00   2.764509E+00   2.784191E+00   2.852221E+00   2.985259E+00   3.145944E+00   3.332078E+00   3.492545E+00   3.601388E+00   3.640904E+00   3.616841E+00   3.548863E+00   3.453798E+00   3.323627E+00   3.169008E+00   2.995605E+00   2.832608E+00   2.694572E+00   2.573768E+00   2.487673E+00   2.433777E+00   2.393358E+00   2.380756E+00   2.366733E+00   2.370340E+00   2.384898E+00   2.415619E+00   2.465867E+00   2.529678E+00   2.615963E+00   2.714140E+00   2.835282E+00   2.981628E+00   3.154692E+00   3.349910E+00   3.571009E+00   3.813068E+00   4.058844E+00   4.280393E+00   4.463908E+00   4.608541E+00   4.703760E+00   4.741275E+00   4.728676E+00   4.661936E+00   4.551373E+00   4.399855E+00   4.235941E+00   4.082223E+00   3.944522E+00   3.856368E+00   3.807236E+00   3.816239E+00   3.887595E+00   4.005117E+00   4.149968E+00   4.329180E+00   4.553622E+00   4.811503E+00   5.114738E+00   5.422640E+00   5.737882E+00   5.979577E+00   6.085744E+00   6.044940E+00   5.856894E+00   5.552239E+00   5.189550E+00   4.811235E+00   4.452811E+00   4.093427E+00   3.749271E+00   3.425645E+00   3.138991E+00   2.889760E+00   2.700974E+00   2.551056E+00   2.445472E+00   2.391841E+00   2.380584E+00   2.413090E+00   2.497885E+00   2.634406E+00   2.831593E+00   3.050399E+00   3.292422E+00   3.532469E+00   3.767117E+00   3.958725E+00   4.113808E+00   4.210030E+00   4.282240E+00   4.319776E+00   4.339866E+00   4.337769E+00   4.335191E+00   4.303186E+00   4.280992E+00   4.231491E+00   4.189440E+00   4.155187E+00   4.129673E+00   4.138735E+00   4.185240E+00   4.258919E+00   4.341069E+00   4.394217E+00   4.415879E+00   4.386361E+00   4.323620E+00   4.237307E+00   4.156284E+00   4.092155E+00   4.036631E+00
   3.901893E+00   3.810091E+00   3.713429E+00   3.630701E+00   3.559086E+00   3.493597E+00   3.438722E+00   3.387263E+00   3.350698E+00   3.289331E+00   3.216906E+00   3.122029E+00   3.023835E+00   2.922995E+00   2.831594E+00   2.753402E+00   2.701974E+00   2.679003E+00   2.700060E+00   2.742840E+00   2.817930E+00   2.926818E+00   3.056547E+00   3.230581E+00   3.438701E+00   3.675836E+00   3.933002E+00   4.188073E+00   4.435740E+00   4.642259E+00   4.792573E+00   4.872587E+00   4.908835E+00   4.864576E+00   4.746512E+00   4.553761E+00   4.323487E+00   4.029702E+00   3.758459E+00   3.507996E+00   3.313292E+00   3.155815E+00   3.021858E+00   2.902938E+00   2.798925E+00   2.720708E+00   2.670586E+00   2.638562E+00   2.636282E+00   2.670036E+00   2.738540E+00   2.822889E+00   2.910132E+00   2.960769E+00   2.976454E+00   2.960689E+00   2.945938E+00   2.945341E+00   2.983418E+00   3.058048E+00   3.184811E+00   3.341679E+00   3.498869E+00   3.627108E+00   3.702793E+00   3.704831E+00   3.642689E+00   3.534128E+00   3.393194E+00   3.236703E+00   3.073064E+00   2.923044E+00   2.787311E+00   2.690211E+00   2.640695E+00   2.635251E+00   2.664331E+00   2.728444E+00   2.799185E+00   2.865442E+00   2.917474E+00   2.930735E+00   2.905684E+00   2.851347E+00   2.781562E+00   2.704919E+00   2.636745E+00   2.599429E+00   2.599450E+00   2.654166E+00   2.770164E+00   2.936221E+00   3.119754E+00   3.299239E+00   3.442694E+00   3.518680E+00   3.534529E+00   3.508796E+00   3.444763E+00   3.340672E+00   3.192532E+00   3.012790E+00   2.849140E+00   2.706382E+00   2.595899E+00   2.518507E+00   2.464056E+00   2.428076E+00   2.404407E+00   2.406629E+00   2.421980E+00   2.448331E+00   2.486461E+00   2.553055E+00   2.621595E+00   2.697975E+00   2.789549E+00   2.882986E+00   3.000334E+00   3.140931E+00   3.319744E+00   3.523931E+00   3.753481E+00   3.991589E+00   4.187840E+00   4.355489E+00   4.461254E+00   4.499569E+00   4.505435E+00   4.484816E+00   4.418835E+00   4.309586E+00   4.154500E+00   4.001581E+00   3.840371E+00   3.701771E+00   3.601024E+00   3.565749E+00   3.584923E+00   3.674598E+00   3.811601E+00   4.004220E+00   4.233109E+00   4.505833E+00   4.817290E+00   5.152339E+00   5.490258E+00   5.837995E+00   6.114282E+00   6.269889E+00   6.252421E+00   6.083070E+00   5.760263E+00   5.356461E+00   4.928862E+00   4.505564E+00   4.099781E+00   3.721021E+00   3.369180E+00   3.066825E+00   2.811522E+00   2.601427E+00   2.445807E+00   2.332628E+00   2.270936E+00   2.255159E+00   2.288536E+00   2.376534E+00   2.523694E+00   2.715784E+00   2.945298E+00   3.191331E+00   3.443792E+00   3.689545E+00   3.913942E+00   4.080527E+00   4.193330E+00   4.247153E+00   4.279861E+00   4.268762E+00   4.248159E+00   4.206836E+00   4.172760E+00   4.135264E+00   4.108050E+00   4.081291E+00   4.088532E+00   4.122810E+00   4.193694E+00   4.301196E+00   4.423952E+00   4.541505E+00   4.623393E+00   4.634270E+00   4.598304E+00   4.522926E+00   4.414855E+00   4.300448E+00   4.189312E+00   4.089410E+00
   3.927833E+00   3.860740E+00   3.788800E+00   3.723425E+00   3.643983E+00   3.575353E+00   3.507457E+00   3.460412E+00   3.412833E+00   3.347872E+00   3.263119E+00   3.164332E+00   3.053034E+00   2.956316E+00   2.864953E+00   2.791459E+00   2.733399E+00   2.716319E+00   2.734798E+00   2.798062E+00   2.881794E+00   2.997812E+00   3.128074E+00   3.293173E+00   3.480580E+00   3.681446E+00   3.901737E+00   4.138405E+00   4.358737E+00   4.559544E+00   4.716437E+00   4.837396E+00   4.929061E+00   4.954621E+00   4.886572E+00   4.749067E+00   4.528808E+00   4.226643E+00   3.907802E+00   3.603674E+00   3.350394E+00   3.143936E+00   2.970117E+00   2.836352E+00   2.727591E+00   2.642127E+00   2.593220E+00   2.572077E+00   2.599374E+00   2.666735E+00   2.775989E+00   2.913390E+00   3.051696E+00   3.166283E+00   3.228445E+00   3.264390E+00   3.281812E+00   3.301798E+00   3.351629E+00   3.446292E+00   3.577121E+00   3.732763E+00   3.894645E+00   4.002721E+00   4.042468E+00   3.995034E+00   3.872158E+00   3.710244E+00   3.517003E+00   3.312340E+00   3.124313E+00   2.945350E+00   2.802281E+00   2.693441E+00   2.637935E+00   2.633216E+00   2.658621E+00   2.715858E+00   2.789072E+00   2.846769E+00   2.889017E+00   2.889835E+00   2.852376E+00   2.789595E+00   2.706494E+00   2.613737E+00   2.526712E+00   2.465568E+00   2.452626E+00   2.498244E+00   2.602190E+00   2.761351E+00   2.956428E+00   3.156873E+00   3.335726E+00   3.461255E+00   3.530990E+00   3.550836E+00   3.522461E+00   3.436803E+00   3.299477E+00   3.143751E+00   2.984228E+00   2.847443E+00   2.743459E+00   2.675100E+00   2.635788E+00   2.605843E+00   2.594527E+00   2.592022E+00   2.609149E+00   2.639222E+00   2.691183E+00   2.750644E+00   2.812874E+00   2.870558E+00   2.921246E+00   2.980904E+00   3.060503E+00   3.169352E+00   3.313412E+00   3.482946E+00   3.679405E+00   3.871927E+00   4.036431E+00   4.143018E+00   4.185382E+00   4.176192E+00   4.163331E+00   4.129786E+00   4.091899E+00   4.017694E+00   3.917303E+00   3.791203E+00   3.648050E+00   3.509055E+00   3.404789E+00   3.358150E+00   3.388848E+00   3.479817E+00   3.632388E+00   3.854295E+00   4.108114E+00   4.401249E+00   4.727614E+00   5.082259E+00   5.441010E+00   5.797757E+00   6.093328E+00   6.276093E+00   6.311709E+00   6.159454E+00   5.833554E+00   5.431009E+00   4.999617E+00   4.559678E+00   4.134029E+00   3.732574E+00   3.385958E+00   3.081220E+00   2.821652E+00   2.606772E+00   2.437432E+00   2.311524E+00   2.234427E+00   2.206594E+00   2.235881E+00   2.315244E+00   2.456222E+00   2.644412E+00   2.873798E+00   3.128411E+00   3.389620E+00   3.644874E+00   3.861614E+00   4.030407E+00   4.143155E+00   4.209538E+00   4.220532E+00   4.216272E+00   4.168162E+00   4.131337E+00   4.083921E+00   4.053476E+00   4.027393E+00   4.034290E+00   4.065743E+00   4.130441E+00   4.237819E+00   4.388716E+00   4.553314E+00   4.688056E+00   4.764773E+00   4.776762E+00   4.729740E+00   4.655050E+00   4.559432E+00   4.432785E+00   4.291683E+00   4.145168E+00
   3.979287E+00   3.956190E+00   3.916253E+00   3.846360E+00   3.787496E+00   3.702536E+00   3.640657E+00   3.585470E+00   3.538735E+00   3.469936E+00   3.374623E+00   3.260635E+00   3.136887E+00   3.032384E+00   2.942741E+00   2.871361E+00   2.819366E+00   2.790605E+00   2.819899E+00   2.883393E+00   2.984365E+00   3.110399E+00   3.237075E+00   3.391623E+00   3.557008E+00   3.740296E+00   3.941653E+00   4.130962E+00   4.331257E+00   4.529162E+00   4.722366E+00   4.876379E+00   4.994050E+00   5.068167E+00   5.074629E+00   4.980315E+00   4.778916E+00   4.475396E+00   4.123632E+00   3.773238E+00   3.475758E+00   3.218761E+00   3.015652E+00   2.854510E+00   2.730957E+00   2.650109E+00   2.601671E+00   2.605928E+00   2.658499E+00   2.753384E+00   2.901357E+00   3.083217E+00   3.264476E+00   3.425321E+00   3.535790E+00   3.600958E+00   3.641132E+00   3.671176E+00   3.742498E+00   3.855616E+00   4.003749E+00   4.174163E+00   4.336178E+00   4.434632E+00   4.437477E+00   4.350854E+00   4.188072E+00   3.979049E+00   3.748622E+00   3.519376E+00   3.294704E+00   3.103588E+00   2.942952E+00   2.831886E+00   2.759146E+00   2.729646E+00   2.734690E+00   2.771258E+00   2.823311E+00   2.866241E+00   2.879833E+00   2.862232E+00   2.808013E+00   2.741416E+00   2.650919E+00   2.550538E+00   2.459891E+00   2.393894E+00   2.382228E+00   2.432530E+00   2.542938E+00   2.699383E+00   2.900956E+00   3.110793E+00   3.316681E+00   3.494573E+00   3.621081E+00   3.674283E+00   3.670663E+00   3.599504E+00   3.483749E+00   3.343729E+00   3.199986E+00   3.071685E+00   2.981692E+00   2.925748E+00   2.895524E+00   2.879194E+00   2.873756E+00   2.873042E+00   2.885285E+00   2.914305E+00   2.965297E+00   3.022513E+00   3.066351E+00   3.108467E+00   3.122226E+00   3.139070E+00   3.170607E+00   3.221116E+00   3.308519E+00   3.420944E+00   3.553352E+00   3.683070E+00   3.774458E+00   3.814182E+00   3.802501E+00   3.771367E+00   3.743994E+00   3.736694E+00   3.735481E+00   3.736048E+00   3.699128E+00   3.620124E+00   3.521166E+00   3.398150E+00   3.291723E+00   3.229595E+00   3.249680E+00   3.343544E+00   3.512862E+00   3.753885E+00   4.030710E+00   4.333118E+00   4.646193E+00   4.979156E+00   5.326427E+00   5.671203E+00   5.979286E+00   6.191297E+00   6.241083E+00   6.111644E+00   5.835905E+00   5.473741E+00   5.048245E+00   4.618179E+00   4.185936E+00   3.798591E+00   3.451698E+00   3.153559E+00   2.899716E+00   2.673229E+00   2.492418E+00   2.357246E+00   2.272678E+00   2.236522E+00   2.258181E+00   2.327359E+00   2.455725E+00   2.632308E+00   2.854357E+00   3.111460E+00   3.386336E+00   3.643458E+00   3.849084E+00   4.000193E+00   4.092425E+00   4.131834E+00   4.142776E+00   4.116306E+00   4.074643E+00   4.032505E+00   3.995366E+00   3.960230E+00   3.949814E+00   3.955325E+00   4.000854E+00   4.076350E+00   4.203329E+00   4.372671E+00   4.537659E+00   4.676188E+00   4.759734E+00   4.768806E+00   4.728618E+00   4.656379E+00   4.567250E+00   4.446851E+00   4.311496E+00   4.159120E+00
   4.043957E+00   4.084282E+00   4.071600E+00   4.037502E+00   3.961157E+00   3.885337E+00   3.813835E+00   3.759649E+00   3.693098E+00   3.604084E+00   3.479943E+00   3.349950E+00   3.221041E+00   3.113748E+00   3.027250E+00   2.968049E+00   2.913175E+00   2.900484E+00   2.923922E+00   2.988684E+00   3.087841E+00   3.214160E+00   3.341873E+00   3.478567E+00   3.627271E+00   3.797541E+00   3.965984E+00   4.148053E+00   4.342233E+00   4.552254E+00   4.756825E+00   4.955196E+00   5.105677E+00   5.218050E+00   5.244291E+00   5.180538E+00   5.009442E+00   4.736575E+00   4.380710E+00   4.003809E+00   3.651611E+00   3.363494E+00   3.126376E+00   2.944702E+00   2.819228E+00   2.735450E+00   2.706707E+00   2.716506E+00   2.787032E+00   2.908841E+00   3.080353E+00   3.272388E+00   3.458340E+00   3.628742E+00   3.748504E+00   3.826841E+00   3.875136E+00   3.941818E+00   4.036878E+00   4.176364E+00   4.367312E+00   4.566525E+00   4.749340E+00   4.856120E+00   4.847410E+00   4.723612E+00   4.529653E+00   4.300646E+00   4.056143E+00   3.804802E+00   3.577026E+00   3.377802E+00   3.200941E+00   3.064832E+00   2.967228E+00   2.904999E+00   2.885359E+00   2.879955E+00   2.895611E+00   2.904317E+00   2.899470E+00   2.858695E+00   2.798225E+00   2.723856E+00   2.642727E+00   2.555029E+00   2.475702E+00   2.430682E+00   2.431503E+00   2.497139E+00   2.613849E+00   2.782332E+00   2.976288E+00   3.193782E+00   3.412632E+00   3.608478E+00   3.763747E+00   3.838252E+00   3.843058E+00   3.784766E+00   3.672643E+00   3.546749E+00   3.415782E+00   3.298546E+00   3.212284E+00   3.164447E+00   3.148719E+00   3.143565E+00   3.147901E+00   3.159867E+00   3.178906E+00   3.207615E+00   3.260320E+00   3.311120E+00   3.340647E+00   3.346063E+00   3.324752E+00   3.288059E+00   3.258484E+00   3.245128E+00   3.259869E+00   3.298049E+00   3.354402E+00   3.410057E+00   3.442237E+00   3.444138E+00   3.415038E+00   3.382074E+00   3.374873E+00   3.390054E+00   3.444723E+00   3.502654E+00   3.535486E+00   3.519031E+00   3.461934E+00   3.369593E+00   3.284452E+00   3.227931E+00   3.243073E+00   3.322612E+00   3.491182E+00   3.741940E+00   4.034719E+00   4.339278E+00   4.637108E+00   4.932605E+00   5.240897E+00   5.558267E+00   5.848182E+00   6.061170E+00   6.144835E+00   6.064491E+00   5.841546E+00   5.502998E+00   5.103589E+00   4.676170E+00   4.270236E+00   3.886424E+00   3.560349E+00   3.278171E+00   3.028395E+00   2.793687E+00   2.600927E+00   2.452397E+00   2.352102E+00   2.309123E+00   2.314147E+00   2.382620E+00   2.499861E+00   2.669205E+00   2.872203E+00   3.123032E+00   3.385423E+00   3.627730E+00   3.815179E+00   3.944144E+00   4.012010E+00   4.035745E+00   4.031840E+00   3.990192E+00   3.960811E+00   3.940992E+00   3.914898E+00   3.893280E+00   3.875764E+00   3.878463E+00   3.914114E+00   3.979187E+00   4.088743E+00   4.229694E+00   4.382323E+00   4.501515E+00   4.582140E+00   4.594733E+00   4.576366E+00   4.528047E+00   4.443150E+00   4.361094E+00   4.255297E+00   4.139345E+00
   4.118196E+00   4.210847E+00   4.262794E+00   4.250150E+00   4.208645E+00   4.125270E+00   4.065255E+00   3.997382E+00   3.909145E+00   3.779392E+00   3.618419E+00   3.458540E+00   3.314833E+00   3.196126E+00   3.115085E+00   3.067539E+00   3.035514E+00   3.023774E+00   3.036911E+00   3.090504E+00   3.170036E+00   3.275808E+00   3.403224E+00   3.531720E+00   3.672243E+00   3.816487E+00   3.980196E+00   4.159843E+00   4.383830E+00   4.596848E+00   4.814359E+00   5.006520E+00   5.182162E+00   5.290001E+00   5.336575E+00   5.285829E+00   5.156736E+00   4.925523E+00   4.611946E+00   4.239588E+00   3.877650E+00   3.554277E+00   3.295037E+00   3.101013E+00   2.959626E+00   2.877039E+00   2.846746E+00   2.876530E+00   2.957608E+00   3.078251E+00   3.238278E+00   3.413885E+00   3.595723E+00   3.736792E+00   3.843228E+00   3.910533E+00   3.973983E+00   4.058681E+00   4.188130E+00   4.376891E+00   4.612234E+00   4.859392E+00   5.051495E+00   5.164643E+00   5.161686E+00   5.043698E+00   4.842269E+00   4.609593E+00   4.365223E+00   4.126872E+00   3.916027E+00   3.719382E+00   3.534186E+00   3.381308E+00   3.237680E+00   3.137472E+00   3.067484E+00   3.019553E+00   2.986079E+00   2.955289E+00   2.920565E+00   2.867067E+00   2.804509E+00   2.742149E+00   2.669459E+00   2.616836E+00   2.576223E+00   2.566135E+00   2.601565E+00   2.682187E+00   2.829315E+00   3.011186E+00   3.223603E+00   3.450614E+00   3.654143E+00   3.813526E+00   3.943594E+00   4.020864E+00   4.009382E+00   3.952524E+00   3.841729E+00   3.726383E+00   3.610079E+00   3.506304E+00   3.425716E+00   3.373270E+00   3.342757E+00   3.343920E+00   3.354445E+00   3.380070E+00   3.413635E+00   3.449789E+00   3.492697E+00   3.513532E+00   3.511651E+00   3.486562E+00   3.433299E+00   3.358865E+00   3.270742E+00   3.190306E+00   3.133042E+00   3.100587E+00   3.091548E+00   3.086447E+00   3.077510E+00   3.064468E+00   3.046216E+00   3.046487E+00   3.069749E+00   3.128919E+00   3.219656E+00   3.329620E+00   3.413137E+00   3.460618E+00   3.453926E+00   3.415750E+00   3.354592E+00   3.319724E+00   3.333925E+00   3.425201E+00   3.583668E+00   3.818450E+00   4.091473E+00   4.376758E+00   4.643406E+00   4.915901E+00   5.190082E+00   5.482922E+00   5.740488E+00   5.938234E+00   6.022331E+00   5.970652E+00   5.784570E+00   5.507788E+00   5.159282E+00   4.774638E+00   4.399193E+00   4.037418E+00   3.707949E+00   3.425256E+00   3.169196E+00   2.936143E+00   2.729427E+00   2.576600E+00   2.472674E+00   2.422916E+00   2.430729E+00   2.485445E+00   2.601944E+00   2.752178E+00   2.949075E+00   3.173168E+00   3.409368E+00   3.627161E+00   3.804327E+00   3.901372E+00   3.955554E+00   3.968834E+00   3.953501E+00   3.917887E+00   3.893186E+00   3.872895E+00   3.862421E+00   3.836397E+00   3.818247E+00   3.802755E+00   3.816195E+00   3.857776E+00   3.934446E+00   4.038327E+00   4.145812E+00   4.244544E+00   4.296013E+00   4.321315E+00   4.321338E+00   4.298710E+00   4.258733E+00   4.217523E+00   4.165633E+00   4.084930E+00