# LPF package for  MODFLOW-2005, generated by Flopy.
         0    -1E+30         0  
         0
         0
   1.000000E+00
         0
         0
INTERNAL               1 (200E15.6) -1 #hk layer 1                    
   3.962797E+00   3.935277E+00   3.904636E+00   3.862629E+00   3.833896E+00   3.813485E+00   3.802145E+00   3.789415E+00   3.787809E+00   3.761552E+00   3.732114E+00   3.689080E+00   3.641834E+00   3.585409E+00   3.527794E+00   3.488871E+00   3.471347E+00   3.475653E+00   3.487902E+00   3.514997E+00   3.555503E+00   3.610222E+00   3.676242E+00   3.769739E+00   3.856411E+00   3.942574E+00   4.023920E+00   4.102468E+00   4.173189E+00   4.228662E+00   4.263230E+00   4.277890E+00   4.262190E+00   4.208461E+00   4.143833E+00   4.060761E+00   3.983393E+00   3.902256E+00   3.837117E+00   3.780242E+00   3.734230E+00   3.704921E+00   3.677587E+00   3.641419E+00   3.612124E+00   3.596214E+00   3.597866E+00   3.596438E+00   3.597061E+00   3.587693E+00   3.565912E+00   3.538512E+00   3.502659E+00   3.460979E+00   3.425243E+00   3.380492E+00   3.348172E+00   3.330727E+00   3.342682E+00   3.384854E+00   3.437949E+00   3.508697E+00   3.589019E+00   3.667554E+00   3.724901E+00   3.774152E+00   3.803726E+00   3.823960E+00   3.825918E+00   3.805988E+00   3.768575E+00   3.724207E+00   3.683854E+00   3.658815E+00   3.654724E+00   3.647170E+00   3.655440E+00   3.651745E+00   3.644550E+00   3.635121E+00   3.635713E+00   3.623680E+00   3.611326E+00   3.599363E+00   3.582954E+00   3.572096E+00   3.569865E+00   3.582185E+00   3.598151E+00   3.648952E+00   3.714832E+00   3.790847E+00   3.863232E+00   3.918284E+00   3.938022E+00   3.934252E+00   3.911762E+00   3.868135E+00   3.820166E+00   3.755214E+00   3.688789E+00   3.614357E+00   3.538826E+00   3.483541E+00   3.436820E+00   3.398633E+00   3.375462E+00   3.354366E+00   3.352423E+00   3.340904E+00   3.328634E+00   3.308941E+00   3.299350E+00   3.305025E+00   3.313863E+00   3.344012E+00   3.403416E+00   3.481921E+00   3.577435E+00   3.681907E+00   3.773143E+00   3.873381E+00   3.963002E+00   4.047302E+00   4.126993E+00   4.192471E+00   4.268043E+00   4.324972E+00   4.356560E+00   4.372812E+00   4.359967E+00   4.335303E+00   4.308086E+00   4.267300E+00   4.212683E+00   4.168771E+00   4.110777E+00   4.072058E+00   4.050178E+00   4.051324E+00   4.074036E+00   4.106611E+00   4.158602E+00   4.213122E+00   4.279320E+00   4.348908E+00   4.431195E+00   4.524992E+00   4.590536E+00   4.616783E+00   4.595723E+00   4.545252E+00   4.457823E+00   4.370924E+00   4.269274E+00   4.164058E+00   4.064103E+00   3.962208E+00   3.866617E+00   3.760841E+00   3.673653E+00   3.573149E+00   3.493887E+00   3.440050E+00   3.401890E+00   3.385090E+00   3.389110E+00   3.415160E+00   3.461331E+00   3.544822E+00   3.647665E+00   3.756758E+00   3.870521E+00   3.969549E+00   4.043451E+00   4.094743E+00   4.129372E+00   4.160812E+00   4.187343E+00   4.202411E+00   4.222241E+00   4.238337E+00   4.251722E+00   4.250412E+00   4.238915E+00   4.202202E+00   4.153108E+00   4.089960E+00   4.032103E+00   3.993688E+00   3.975640E+00   3.977490E+00   3.985418E+00   4.000450E+00   4.005284E+00   4.010326E+00   4.009998E+00   3.991222E+00   3.983200E+00   3.979291E+00
   3.931102E+00   3.887754E+00   3.829828E+00   3.762655E+00   3.694612E+00   3.655603E+00   3.623626E+00   3.599874E+00   3.585630E+00   3.569230E+00   3.518359E+00   3.459112E+00   3.366430E+00   3.277785E+00   3.189177E+00   3.124460E+00   3.088218E+00   3.089548E+00   3.108957E+00   3.146005E+00   3.206980E+00   3.294832E+00   3.408868E+00   3.546134E+00   3.701230E+00   3.869290E+00   4.044029E+00   4.212658E+00   4.363550E+00   4.476408E+00   4.542274E+00   4.577995E+00   4.538897E+00   4.449438E+00   4.313323E+00   4.166452E+00   4.016456E+00   3.866050E+00   3.720891E+00   3.616937E+00   3.531832E+00   3.477380E+00   3.426473E+00   3.378045E+00   3.326850E+00   3.299364E+00   3.291393E+00   3.285536E+00   3.282872E+00   3.269505E+00   3.241988E+00   3.198152E+00   3.151987E+00   3.091664E+00   3.019260E+00   2.953068E+00   2.904786E+00   2.881420E+00   2.896937E+00   2.955933E+00   3.048375E+00   3.177523E+00   3.316521E+00   3.439432E+00   3.540918E+00   3.620215E+00   3.659764E+00   3.670836E+00   3.654459E+00   3.607706E+00   3.536751E+00   3.463005E+00   3.394807E+00   3.346586E+00   3.318232E+00   3.305721E+00   3.306752E+00   3.317242E+00   3.330713E+00   3.344603E+00   3.346096E+00   3.339566E+00   3.320164E+00   3.291410E+00   3.255392E+00   3.223950E+00   3.214116E+00   3.223097E+00   3.256796E+00   3.326614E+00   3.449454E+00   3.571509E+00   3.707998E+00   3.808100E+00   3.860836E+00   3.865872E+00   3.817471E+00   3.748162E+00   3.658916E+00   3.553169E+00   3.436174E+00   3.309358E+00   3.182855E+00   3.082115E+00   3.002822E+00   2.939640E+00   2.899115E+00   2.875681E+00   2.857962E+00   2.842738E+00   2.823235E+00   2.810619E+00   2.814612E+00   2.824103E+00   2.855844E+00   2.913327E+00   2.997038E+00   3.108447E+00   3.251794E+00   3.408267E+00   3.571015E+00   3.748560E+00   3.919970E+00   4.086901E+00   4.236234E+00   4.381651E+00   4.511477E+00   4.607844E+00   4.648374E+00   4.658783E+00   4.638769E+00   4.593231E+00   4.518674E+00   4.415190E+00   4.309083E+00   4.212033E+00   4.139637E+00   4.086258E+00   4.073349E+00   4.088219E+00   4.138602E+00   4.222457E+00   4.297128E+00   4.406734E+00   4.525713E+00   4.680871E+00   4.854544E+00   5.037850E+00   5.182567E+00   5.230350E+00   5.195370E+00   5.072602E+00   4.905177E+00   4.710440E+00   4.497442E+00   4.284745E+00   4.077335E+00   3.883684E+00   3.689624E+00   3.513281E+00   3.339244E+00   3.195050E+00   3.067152E+00   2.986234E+00   2.935756E+00   2.910881E+00   2.919084E+00   2.971594E+00   3.068235E+00   3.207878E+00   3.373852E+00   3.558070E+00   3.746400E+00   3.909567E+00   4.045556E+00   4.142231E+00   4.213267E+00   4.270707E+00   4.313107E+00   4.347991E+00   4.379278E+00   4.414649E+00   4.424961E+00   4.420158E+00   4.382003E+00   4.328680E+00   4.247776E+00   4.153071E+00   4.068485E+00   4.005049E+00   4.004176E+00   4.019080E+00   4.045103E+00   4.059830E+00   4.058228E+00   4.054984E+00   4.037012E+00   4.011854E+00   3.986762E+00   3.982339E+00
   3.911457E+00   3.831535E+00   3.749158E+00   3.665386E+00   3.598487E+00   3.527589E+00   3.482166E+00   3.448294E+00   3.426502E+00   3.389994E+00   3.342453E+00   3.261741E+00   3.174770E+00   3.070689E+00   2.974729E+00   2.897372E+00   2.853358E+00   2.846026E+00   2.866245E+00   2.912503E+00   2.976469E+00   3.079133E+00   3.215690E+00   3.387433E+00   3.576823E+00   3.793095E+00   4.037623E+00   4.276138E+00   4.494875E+00   4.656804E+00   4.767560E+00   4.800619E+00   4.761969E+00   4.651834E+00   4.499749E+00   4.292204E+00   4.081648E+00   3.862586E+00   3.679481E+00   3.528169E+00   3.415602E+00   3.324945E+00   3.258812E+00   3.194237E+00   3.126704E+00   3.063497E+00   3.038902E+00   3.013879E+00   3.011939E+00   3.010916E+00   3.004379E+00   2.979202E+00   2.953108E+00   2.897798E+00   2.834711E+00   2.772644E+00   2.717844E+00   2.691880E+00   2.709739E+00   2.779145E+00   2.893639E+00   3.038501E+00   3.196807E+00   3.347624E+00   3.465044E+00   3.536466E+00   3.565369E+00   3.554666E+00   3.505269E+00   3.429554E+00   3.323631E+00   3.222544E+00   3.129666E+00   3.062944E+00   3.021006E+00   3.000741E+00   3.008641E+00   3.033422E+00   3.074526E+00   3.111009E+00   3.130941E+00   3.131313E+00   3.116469E+00   3.073985E+00   3.034144E+00   2.993135E+00   2.964805E+00   2.957598E+00   2.984419E+00   3.066659E+00   3.196257E+00   3.362089E+00   3.523792E+00   3.667816E+00   3.738754E+00   3.748420E+00   3.707728E+00   3.629720E+00   3.533749E+00   3.403440E+00   3.255872E+00   3.101932E+00   2.953197E+00   2.817416E+00   2.714568E+00   2.633990E+00   2.576881E+00   2.543841E+00   2.526067E+00   2.512465E+00   2.502541E+00   2.501325E+00   2.520642E+00   2.552552E+00   2.595411E+00   2.672006E+00   2.769161E+00   2.892509E+00   3.056027E+00   3.236931E+00   3.429787E+00   3.652770E+00   3.877928E+00   4.097674E+00   4.299241E+00   4.472054E+00   4.632879E+00   4.738200E+00   4.800079E+00   4.799017E+00   4.754322E+00   4.666086E+00   4.540945E+00   4.402460E+00   4.261830E+00   4.144390E+00   4.046469E+00   4.001585E+00   3.997244E+00   4.042457E+00   4.127665E+00   4.226608E+00   4.359096E+00   4.514735E+00   4.710565E+00   4.934363E+00   5.204592E+00   5.454937E+00   5.642967E+00   5.716953E+00   5.674934E+00   5.512441E+00   5.265553E+00   4.981249E+00   4.677443E+00   4.377779E+00   4.084668E+00   3.801089E+00   3.529093E+00   3.281341E+00   3.065615E+00   2.875436E+00   2.743157E+00   2.652051E+00   2.600208E+00   2.586630E+00   2.616652E+00   2.692588E+00   2.815853E+00   2.983568E+00   3.191290E+00   3.407897E+00   3.631474E+00   3.835611E+00   4.015852E+00   4.145703E+00   4.243383E+00   4.309238E+00   4.361321E+00   4.399925E+00   4.422943E+00   4.430440E+00   4.437352E+00   4.415576E+00   4.374094E+00   4.306427E+00   4.231710E+00   4.167421E+00   4.107698E+00   4.083364E+00   4.095752E+00   4.140739E+00   4.191554E+00   4.206547E+00   4.196512E+00   4.158318E+00   4.116731E+00   4.076150E+00   4.039334E+00   4.009656E+00
   3.896397E+00   3.808087E+00   3.706692E+00   3.617171E+00   3.544127E+00   3.483429E+00   3.426464E+00   3.386386E+00   3.348640E+00   3.305097E+00   3.237828E+00   3.162254E+00   3.060601E+00   2.958807E+00   2.861207E+00   2.788308E+00   2.738134E+00   2.722199E+00   2.738946E+00   2.785607E+00   2.847015E+00   2.944196E+00   3.081158E+00   3.263703E+00   3.476166E+00   3.717912E+00   3.983216E+00   4.264388E+00   4.516080E+00   4.715780E+00   4.849704E+00   4.914966E+00   4.876927E+00   4.795995E+00   4.626347E+00   4.406838E+00   4.158674E+00   3.903646E+00   3.670567E+00   3.491553E+00   3.347103E+00   3.228423E+00   3.124135E+00   3.027909E+00   2.943381E+00   2.872728E+00   2.826852E+00   2.791162E+00   2.786370E+00   2.799901E+00   2.824767E+00   2.847771E+00   2.864059E+00   2.863303E+00   2.830047E+00   2.784694E+00   2.741482E+00   2.725963E+00   2.748719E+00   2.821388E+00   2.941000E+00   3.095331E+00   3.255908E+00   3.401101E+00   3.504154E+00   3.550749E+00   3.540580E+00   3.482718E+00   3.396529E+00   3.283300E+00   3.157614E+00   3.024629E+00   2.914277E+00   2.824796E+00   2.781164E+00   2.771988E+00   2.795179E+00   2.835644E+00   2.895412E+00   2.947242E+00   2.991913E+00   3.007907E+00   2.995641E+00   2.954920E+00   2.893967E+00   2.836773E+00   2.786551E+00   2.764162E+00   2.783773E+00   2.851736E+00   2.984704E+00   3.145331E+00   3.331427E+00   3.491887E+00   3.600764E+00   3.640360E+00   3.616414E+00   3.548568E+00   3.453641E+00   3.323611E+00   3.169116E+00   2.995815E+00   2.832906E+00   2.694941E+00   2.574190E+00   2.488133E+00   2.434263E+00   2.393857E+00   2.381262E+00   2.367238E+00   2.370838E+00   2.385388E+00   2.416100E+00   2.466339E+00   2.530134E+00   2.616403E+00   2.714556E+00   2.835669E+00   2.981983E+00   3.155015E+00   3.350194E+00   3.571253E+00   3.813260E+00   4.058973E+00   4.280448E+00   4.463887E+00   4.608437E+00   4.703578E+00   4.741021E+00   4.728355E+00   4.661558E+00   4.550955E+00   4.399428E+00   4.235523E+00   4.081827E+00   3.944149E+00   3.856017E+00   3.806906E+00   3.815920E+00   3.887276E+00   4.004781E+00   4.149605E+00   4.328773E+00   4.553139E+00   4.810909E+00   5.113998E+00   5.421726E+00   5.736777E+00   5.978296E+00   6.084347E+00   6.043501E+00   5.855497E+00   5.550957E+00   5.188426E+00   4.810285E+00   4.452025E+00   4.092793E+00   3.748768E+00   3.425250E+00   3.138682E+00   2.889509E+00   2.700757E+00   2.550851E+00   2.445262E+00   2.391616E+00   2.380322E+00   2.412780E+00   2.497506E+00   2.633937E+00   2.831013E+00   3.049709E+00   3.291626E+00   3.531588E+00   3.766179E+00   3.957774E+00   4.112885E+00   4.209176E+00   4.281485E+00   4.319130E+00   4.339333E+00   4.337344E+00   4.334862E+00   4.302939E+00   4.280798E+00   4.231339E+00   4.189318E+00   4.155084E+00   4.129580E+00   4.138639E+00   4.185141E+00   4.258819E+00   4.340966E+00   4.394114E+00   4.415769E+00   4.386255E+00   4.323519E+00   4.237217E+00   4.156206E+00   4.092095E+00   4.036600E+00
   3.901776E+00   3.809870E+00   3.713124E+00   3.630332E+00   3.558674E+00   3.493170E+00   3.438313E+00   3.386899E+00   3.350400E+00   3.289117E+00   3.216781E+00   3.121981E+00   3.023845E+00   2.923036E+00   2.831646E+00   2.753445E+00   2.701993E+00   2.678991E+00   2.700009E+00   2.742740E+00   2.817775E+00   2.926595E+00   3.056242E+00   3.230171E+00   3.438168E+00   3.675164E+00   3.932177E+00   4.187103E+00   4.434634E+00   4.641047E+00   4.791298E+00   4.871305E+00   4.907585E+00   4.863410E+00   4.745475E+00   4.552894E+00   4.322811E+00   4.029237E+00   3.758203E+00   3.507931E+00   3.313395E+00   3.156058E+00   3.022212E+00   2.903370E+00   2.799398E+00   2.721185E+00   2.671033E+00   2.638955E+00   2.636600E+00   2.670266E+00   2.738666E+00   2.822897E+00   2.910006E+00   2.960511E+00   2.976070E+00   2.960198E+00   2.945359E+00   2.944695E+00   2.982724E+00   3.057332E+00   3.184095E+00   3.340996E+00   3.498249E+00   3.626591E+00   3.702409E+00   3.704606E+00   3.642634E+00   3.534239E+00   3.393445E+00   3.237069E+00   3.073520E+00   2.923561E+00   2.787863E+00   2.690772E+00   2.641246E+00   2.635772E+00   2.664812E+00   2.728875E+00   2.799556E+00   2.865744E+00   2.917701E+00   2.930880E+00   2.905739E+00   2.851315E+00   2.781448E+00   2.704728E+00   2.636483E+00   2.599103E+00   2.599065E+00   2.653719E+00   2.769651E+00   2.935645E+00   3.119134E+00   3.298602E+00   3.442075E+00   3.518129E+00   3.534089E+00   3.508487E+00   3.444599E+00   3.340658E+00   3.192655E+00   3.013027E+00   2.849471E+00   2.706790E+00   2.596366E+00   2.519015E+00   2.464590E+00   2.428621E+00   2.404955E+00   2.407175E+00   2.422523E+00   2.448865E+00   2.486980E+00   2.553558E+00   2.622076E+00   2.698429E+00   2.789972E+00   2.883370E+00   3.000677E+00   3.141233E+00   3.320005E+00   3.524143E+00   3.753641E+00   3.991683E+00   4.187863E+00   4.355435E+00   4.461121E+00   4.499362E+00   4.505166E+00   4.484486E+00   4.418452E+00   4.309171E+00   4.154080E+00   4.001180E+00   3.839999E+00   3.701427E+00   3.600701E+00   3.565438E+00   3.584614E+00   3.674279E+00   3.811259E+00   4.003837E+00   4.232664E+00   4.505289E+00   4.816608E+00   5.151479E+00   5.489188E+00   5.836681E+00   6.112748E+00   6.268207E+00   6.250687E+00   6.081380E+00   5.758715E+00   5.355111E+00   4.927734E+00   4.504656E+00   4.099074E+00   3.720483E+00   3.368781E+00   3.066526E+00   2.811296E+00   2.601248E+00   2.445651E+00   2.332471E+00   2.270759E+00   2.254940E+00   2.288255E+00   2.376170E+00   2.523225E+00   2.715192E+00   2.944579E+00   3.190492E+00   3.442853E+00   3.688537E+00   3.912903E+00   4.079504E+00   4.192367E+00   4.246296E+00   4.279119E+00   4.268141E+00   4.247650E+00   4.206437E+00   4.172449E+00   4.135012E+00   4.107837E+00   4.081099E+00   4.088343E+00   4.122603E+00   4.193460E+00   4.300938E+00   4.423681E+00   4.541231E+00   4.623121E+00   4.634016E+00   4.598077E+00   4.522728E+00   4.414690E+00   4.300313E+00   4.189217E+00   4.089363E+00
   3.927727E+00   3.860536E+00   3.788515E+00   3.723081E+00   3.643607E+00   3.574979E+00   3.507116E+00   3.460133E+00   3.412639E+00   3.347776E+00   3.263123E+00   3.164419E+00   3.053182E+00   2.956495E+00   2.865138E+00   2.791631E+00   2.733541E+00   2.716422E+00   2.734852E+00   2.798058E+00   2.881728E+00   2.997674E+00   3.127848E+00   3.292837E+00   3.480116E+00   3.680835E+00   3.900970E+00   4.137477E+00   4.357662E+00   4.558334E+00   4.715126E+00   4.836018E+00   4.927659E+00   4.953248E+00   4.885284E+00   4.747915E+00   4.527831E+00   4.225882E+00   3.907269E+00   3.603358E+00   3.350274E+00   3.143980E+00   2.970294E+00   2.836625E+00   2.727924E+00   2.642478E+00   2.593557E+00   2.572371E+00   2.599602E+00   2.666872E+00   2.776015E+00   2.913282E+00   3.051436E+00   3.165859E+00   3.227877E+00   3.263694E+00   3.281014E+00   3.300925E+00   3.350711E+00   3.445357E+00   3.576207E+00   3.731905E+00   3.893884E+00   4.002106E+00   4.042036E+00   3.994804E+00   3.872127E+00   3.710387E+00   3.517288E+00   3.312736E+00   3.124782E+00   2.945862E+00   2.802809E+00   2.693963E+00   2.638427E+00   2.633663E+00   2.659012E+00   2.716186E+00   2.789330E+00   2.846958E+00   2.889135E+00   2.889881E+00   2.852354E+00   2.789510E+00   2.706352E+00   2.613544E+00   2.526473E+00   2.465284E+00   2.452295E+00   2.497861E+00   2.601748E+00   2.760846E+00   2.955873E+00   3.156288E+00   3.335144E+00   3.460719E+00   3.530545E+00   3.550509E+00   3.522278E+00   3.436774E+00   3.299598E+00   3.143998E+00   2.984580E+00   2.847879E+00   2.743957E+00   2.675642E+00   2.636361E+00   2.606425E+00   2.595108E+00   2.592596E+00   2.609713E+00   2.639772E+00   2.691717E+00   2.751153E+00   2.813350E+00   2.870996E+00   2.921640E+00   2.981247E+00   3.060797E+00   3.169600E+00   3.313616E+00   3.483105E+00   3.679512E+00   3.871978E+00   4.036419E+00   4.142946E+00   4.185246E+00   4.175998E+00   4.163083E+00   4.129484E+00   4.091551E+00   4.017312E+00   3.916910E+00   3.790819E+00   3.647689E+00   3.508718E+00   3.404469E+00   3.357840E+00   3.388539E+00   3.479496E+00   3.632030E+00   3.853878E+00   4.107611E+00   4.400630E+00   4.726839E+00   5.081282E+00   5.439792E+00   5.796282E+00   6.091619E+00   6.274216E+00   6.309764E+00   6.157562E+00   5.831830E+00   5.429511E+00   4.998372E+00   4.558682E+00   4.133270E+00   3.732020E+00   3.385569E+00   3.080955E+00   2.821477E+00   2.606656E+00   2.437345E+00   2.311436E+00   2.234319E+00   2.206443E+00   2.235665E+00   2.314940E+00   2.455801E+00   2.643858E+00   2.873101E+00   3.127578E+00   3.388672E+00   3.643846E+00   3.860551E+00   4.029358E+00   4.142159E+00   4.208636E+00   4.219748E+00   4.215607E+00   4.167620E+00   4.130904E+00   4.083580E+00   4.053196E+00   4.027146E+00   4.034043E+00   4.065472E+00   4.130120E+00   4.237444E+00   4.388296E+00   4.552864E+00   4.687593E+00   4.764318E+00   4.776345E+00   4.729374E+00   4.654735E+00   4.559167E+00   4.432580E+00   4.291545E+00   4.145100E+00
   3.979195E+00   3.956016E+00   3.916008E+00   3.846072E+00   3.787190E+00   3.702255E+00   3.640428E+00   3.585323E+00   3.538692E+00   3.470011E+00   3.374812E+00   3.260916E+00   3.137230E+00   3.032758E+00   2.943120E+00   2.871717E+00   2.819683E+00   2.790871E+00   2.820105E+00   2.883532E+00   2.984435E+00   3.110389E+00   3.236969E+00   3.391402E+00   3.556651E+00   3.739787E+00   3.940975E+00   4.130122E+00   4.330248E+00   4.527988E+00   4.721040E+00   4.874930E+00   4.992513E+00   5.066590E+00   5.073066E+00   4.978831E+00   4.777582E+00   4.474269E+00   4.122749E+00   3.772602E+00   3.475345E+00   3.218545E+00   3.015595E+00   2.854571E+00   2.731094E+00   2.650279E+00   2.601842E+00   2.606070E+00   2.658584E+00   2.753381E+00   2.901236E+00   3.082949E+00   3.264038E+00   3.424706E+00   3.535015E+00   3.600056E+00   3.640134E+00   3.670120E+00   3.741406E+00   3.854520E+00   4.002692E+00   4.173188E+00   4.335324E+00   4.433959E+00   4.437023E+00   4.350629E+00   4.188059E+00   3.979212E+00   3.748923E+00   3.519771E+00   3.295155E+00   3.104062E+00   2.943425E+00   2.832334E+00   2.759551E+00   2.729988E+00   2.734961E+00   2.771453E+00   2.823432E+00   2.866293E+00   2.879823E+00   2.862172E+00   2.807908E+00   2.741280E+00   2.650754E+00   2.550349E+00   2.459680E+00   2.393660E+00   2.381959E+00   2.432216E+00   2.542567E+00   2.698949E+00   2.900465E+00   3.110266E+00   3.316144E+00   3.494057E+00   3.620639E+00   3.673955E+00   3.670476E+00   3.599474E+00   3.483865E+00   3.343977E+00   3.200343E+00   3.072128E+00   2.982200E+00   2.926299E+00   2.896102E+00   2.879779E+00   2.874336E+00   2.873610E+00   2.885838E+00   2.914840E+00   2.965808E+00   3.022990E+00   3.066780E+00   3.108846E+00   3.122550E+00   3.139340E+00   3.170825E+00   3.221288E+00   3.308648E+00   3.421028E+00   3.553395E+00   3.683074E+00   3.774421E+00   3.814105E+00   3.802385E+00   3.771206E+00   3.743790E+00   3.736439E+00   3.735180E+00   3.735707E+00   3.698765E+00   3.619756E+00   3.520802E+00   3.397798E+00   3.291384E+00   3.229265E+00   3.249349E+00   3.343195E+00   3.512466E+00   3.753410E+00   4.030131E+00   4.332405E+00   4.645312E+00   4.978066E+00   5.325095E+00   5.669616E+00   5.977463E+00   6.189301E+00   6.239026E+00   6.109656E+00   5.834093E+00   5.472167E+00   5.046946E+00   4.617152E+00   4.185166E+00   3.798048E+00   3.451341E+00   3.153349E+00   2.899615E+00   2.673201E+00   2.492428E+00   2.357261E+00   2.272671E+00   2.236467E+00   2.258053E+00   2.327136E+00   2.455383E+00   2.631830E+00   2.853734E+00   3.110690E+00   3.385438E+00   3.642466E+00   3.848057E+00   3.999180E+00   4.091472E+00   4.130968E+00   4.142016E+00   4.115665E+00   4.074121E+00   4.032088E+00   3.995031E+00   3.959952E+00   3.949554E+00   3.955050E+00   4.000532E+00   4.075959E+00   4.202862E+00   4.372133E+00   4.537063E+00   4.675562E+00   4.759119E+00   4.768242E+00   4.728116E+00   4.655948E+00   4.566891E+00   4.446577E+00   4.311314E+00   4.159030E+00
   4.043888E+00   4.084146E+00   4.071417E+00   4.037292E+00   3.960957E+00   3.885180E+00   3.813761E+00   3.759685E+00   3.693261E+00   3.604382E+00   3.480362E+00   3.350460E+00   3.221610E+00   3.114344E+00   3.027840E+00   2.968610E+00   2.913686E+00   2.900938E+00   2.924310E+00   2.988998E+00   3.088077E+00   3.214312E+00   3.341927E+00   3.478507E+00   3.627074E+00   3.797179E+00   3.965447E+00   4.147331E+00   4.341318E+00   4.551136E+00   4.755511E+00   4.953699E+00   5.104029E+00   5.216290E+00   5.242476E+00   5.178733E+00   5.007732E+00   4.735044E+00   4.379420E+00   4.002784E+00   3.650846E+00   3.362959E+00   3.126027E+00   2.944494E+00   2.819117E+00   2.735394E+00   2.706666E+00   2.716448E+00   2.786925E+00   2.908652E+00   3.080046E+00   3.271931E+00   3.457717E+00   3.627947E+00   3.747565E+00   3.825790E+00   3.874017E+00   3.940660E+00   4.035710E+00   4.175218E+00   4.366217E+00   4.565527E+00   4.748487E+00   4.855463E+00   4.846976E+00   4.723412E+00   4.529661E+00   4.300822E+00   4.056437E+00   3.805168E+00   3.577423E+00   3.378202E+00   3.201316E+00   3.065166E+00   2.967504E+00   2.905205E+00   2.885490E+00   2.880008E+00   2.895591E+00   2.904235E+00   2.899341E+00   2.858533E+00   2.798045E+00   2.723671E+00   2.642540E+00   2.554838E+00   2.475510E+00   2.430481E+00   2.431279E+00   2.496880E+00   2.613540E+00   2.781964E+00   2.975865E+00   3.193321E+00   3.412153E+00   3.608010E+00   3.763337E+00   3.837945E+00   3.842887E+00   3.784740E+00   3.672755E+00   3.546988E+00   3.416127E+00   3.298975E+00   3.212775E+00   3.164974E+00   3.149265E+00   3.144109E+00   3.148432E+00   3.160382E+00   3.179401E+00   3.208083E+00   3.260758E+00   3.311514E+00   3.340990E+00   3.346350E+00   3.324983E+00   3.288238E+00   3.258614E+00   3.245217E+00   3.259925E+00   3.298073E+00   3.354400E+00   3.410033E+00   3.442186E+00   3.444062E+00   3.414936E+00   3.381950E+00   3.374714E+00   3.389852E+00   3.444471E+00   3.502358E+00   3.535156E+00   3.518680E+00   3.461576E+00   3.369234E+00   3.284092E+00   3.227572E+00   3.242704E+00   3.322215E+00   3.490729E+00   3.741397E+00   4.034057E+00   4.338467E+00   4.636118E+00   4.931403E+00   5.239461E+00   5.556600E+00   5.846298E+00   6.059131E+00   6.142745E+00   6.062469E+00   5.839694E+00   5.501391E+00   5.102267E+00   4.675143E+00   4.269481E+00   3.885913E+00   3.560042E+00   3.278031E+00   3.028381E+00   2.793763E+00   2.601052E+00   2.452536E+00   2.352219E+00   2.309192E+00   2.314137E+00   2.382508E+00   2.499625E+00   2.668831E+00   2.871680E+00   3.122365E+00   3.384632E+00   3.626849E+00   3.814258E+00   3.943234E+00   4.011158E+00   4.034977E+00   4.031172E+00   3.989639E+00   3.960364E+00   3.940635E+00   3.914606E+00   3.893029E+00   3.875522E+00   3.878191E+00   3.913781E+00   3.978777E+00   4.088244E+00   4.229111E+00   4.381670E+00   4.500828E+00   4.581459E+00   4.594094E+00   4.575785E+00   4.527536E+00   4.442729E+00   4.360772E+00   4.255079E+00   4.139234E+00
   4.118152E+00   4.210767E+00   4.262693E+00   4.250054E+00   4.208583E+00   4.125285E+00   4.065379E+00   3.997641E+00   3.909547E+00   3.779935E+00   3.619083E+00   3.459290E+00   3.315632E+00   3.196936E+00   3.115880E+00   3.068297E+00   3.036217E+00   3.024415E+00   3.037483E+00   3.091001E+00   3.170453E+00   3.276140E+00   3.403459E+00   3.531834E+00   3.672212E+00   3.816293E+00   3.979822E+00   4.159277E+00   4.383044E+00   4.595833E+00   4.813105E+00   5.005041E+00   5.180475E+00   5.288144E+00   5.334589E+00   5.283778E+00   5.154698E+00   4.923603E+00   4.610229E+00   4.238142E+00   3.876482E+00   3.553373E+00   3.294349E+00   3.100492E+00   2.959229E+00   2.876718E+00   2.846457E+00   2.876234E+00   2.957272E+00   3.077843E+00   3.237763E+00   3.413239E+00   3.594927E+00   3.735862E+00   3.842186E+00   3.909418E+00   3.972830E+00   4.057528E+00   4.186996E+00   4.375800E+00   4.611207E+00   4.858475E+00   5.050735E+00   5.164076E+00   5.161331E+00   5.043554E+00   4.842314E+00   4.609776E+00   4.365495E+00   4.127187E+00   3.916348E+00   3.719681E+00   3.534444E+00   3.381509E+00   3.237810E+00   3.137527E+00   3.067467E+00   3.019466E+00   2.985929E+00   2.955093E+00   2.920341E+00   2.866831E+00   2.804277E+00   2.741933E+00   2.669262E+00   2.616653E+00   2.576049E+00   2.565962E+00   2.601378E+00   2.681974E+00   2.829061E+00   3.010879E+00   3.223239E+00   3.450208E+00   3.653721E+00   3.813126E+00   3.943253E+00   4.020622E+00   4.009262E+00   3.952534E+00   3.841862E+00   3.726625E+00   3.610412E+00   3.506707E+00   3.426169E+00   3.373755E+00   3.343250E+00   3.344405E+00   3.354908E+00   3.380512E+00   3.414048E+00   3.450166E+00   3.493028E+00   3.513818E+00   3.511885E+00   3.486747E+00   3.433435E+00   3.358953E+00   3.270790E+00   3.190327E+00   3.133043E+00   3.100573E+00   3.091524E+00   3.086412E+00   3.077463E+00   3.064405E+00   3.046134E+00   3.046385E+00   3.069615E+00   3.128748E+00   3.219443E+00   3.329360E+00   3.412837E+00   3.460286E+00   3.453571E+00   3.415379E+00   3.354210E+00   3.319330E+00   3.333512E+00   3.424744E+00   3.583144E+00   3.817828E+00   4.090725E+00   4.375861E+00   4.642334E+00   4.914625E+00   5.188595E+00   5.481222E+00   5.738600E+00   5.936212E+00   6.020271E+00   5.968658E+00   5.782734E+00   5.506178E+00   5.157950E+00   4.773601E+00   4.398439E+00   4.036926E+00   3.707689E+00   3.425184E+00   3.169276E+00   2.936329E+00   2.729677E+00   2.576869E+00   2.472923E+00   2.423113E+00   2.430847E+00   2.485462E+00   2.601835E+00   2.751926E+00   2.948675E+00   3.172628E+00   3.408709E+00   3.626416E+00   3.803541E+00   3.900606E+00   3.954846E+00   3.968205E+00   3.952960E+00   3.917440E+00   3.892833E+00   3.872622E+00   3.862200E+00   3.836206E+00   3.818046E+00   3.802522E+00   3.815904E+00   3.857407E+00   3.933988E+00   4.037783E+00   4.145204E+00   4.243899E+00   4.295376E+00   4.320710E+00   4.320782E+00   4.298220E+00   4.258323E+00   4.217204E+00   4.165411E+00   4.084814E+00