# LPF package for  MODFLOW-2005, generated by Flopy.
         0    -1E+30         0  
         0
         0
   1.000000E+00
         0
         0
INTERNAL               1 (200E15.6) -1 #hk layer 1                    
   3.962791E+00   3.935266E+00   3.904613E+00   3.862599E+00   3.833858E+00   3.813439E+00   3.802091E+00   3.789352E+00   3.787735E+00   3.761467E+00   3.732022E+00   3.688979E+00   3.641729E+00   3.585300E+00   3.527686E+00   3.488768E+00   3.471249E+00   3.475558E+00   3.487815E+00   3.514916E+00   3.555430E+00   3.610157E+00   3.676186E+00   3.769697E+00   3.856389E+00   3.942584E+00   4.023968E+00   4.102562E+00   4.173330E+00   4.228848E+00   4.263454E+00   4.278143E+00   4.262467E+00   4.208751E+00   4.144134E+00   4.061060E+00   3.983681E+00   3.902523E+00   3.837357E+00   3.780449E+00   3.734404E+00   3.705062E+00   3.677698E+00   3.641503E+00   3.612186E+00   3.596255E+00   3.597893E+00   3.596457E+00   3.597068E+00   3.587691E+00   3.565900E+00   3.538493E+00   3.502628E+00   3.460944E+00   3.425207E+00   3.380463E+00   3.348152E+00   3.330726E+00   3.342700E+00   3.384895E+00   3.438015E+00   3.508792E+00   3.589142E+00   3.667703E+00   3.725070E+00   3.774339E+00   3.803925E+00   3.824164E+00   3.826122E+00   3.806190E+00   3.768776E+00   3.724406E+00   3.684051E+00   3.659013E+00   3.654927E+00   3.647375E+00   3.655650E+00   3.651958E+00   3.644766E+00   3.635342E+00   3.635935E+00   3.623901E+00   3.611544E+00   3.599572E+00   3.583152E+00   3.572279E+00   3.570033E+00   3.582334E+00   3.598285E+00   3.649072E+00   3.714942E+00   3.790948E+00   3.863326E+00   3.918371E+00   3.938107E+00   3.934334E+00   3.911839E+00   3.868209E+00   3.820236E+00   3.755278E+00   3.688846E+00   3.614405E+00   3.538862E+00   3.483567E+00   3.436835E+00   3.398634E+00   3.375448E+00   3.354330E+00   3.352363E+00   3.340819E+00   3.328529E+00   3.308820E+00   3.299221E+00   3.304892E+00   3.313733E+00   3.343891E+00   3.403307E+00   3.481827E+00   3.577359E+00   3.681854E+00   3.773117E+00   3.873392E+00   3.963051E+00   4.047395E+00   4.127130E+00   4.192653E+00   4.268268E+00   4.325237E+00   4.356861E+00   4.373141E+00   4.360317E+00   4.335668E+00   4.308460E+00   4.267677E+00   4.213059E+00   4.169140E+00   4.111137E+00   4.072413E+00   4.050525E+00   4.051665E+00   4.074367E+00   4.106935E+00   4.158921E+00   4.213439E+00   4.279637E+00   4.349220E+00   4.431497E+00   4.525282E+00   4.590808E+00   4.617033E+00   4.595938E+00   4.545434E+00   4.457961E+00   4.371017E+00   4.269323E+00   4.164065E+00   4.064076E+00   3.962154E+00   3.866545E+00   3.760756E+00   3.673565E+00   3.573063E+00   3.493804E+00   3.439975E+00   3.401821E+00   3.385030E+00   3.389060E+00   3.415126E+00   3.461318E+00   3.544834E+00   3.647701E+00   3.756816E+00   3.870596E+00   3.969637E+00   4.043545E+00   4.094834E+00   4.129454E+00   4.160880E+00   4.187397E+00   4.202446E+00   4.222254E+00   4.238328E+00   4.251692E+00   4.250359E+00   4.238847E+00   4.202127E+00   4.153029E+00   4.089886E+00   4.032038E+00   3.993633E+00   3.975595E+00   3.977457E+00   3.985398E+00   4.000444E+00   4.005294E+00   4.010345E+00   4.010019E+00   3.991241E+00   3.983217E+00   3.979300E+00
   3.931096E+00   3.887736E+00   3.829796E+00   3.762607E+00   3.694549E+00   3.655527E+00   3.623538E+00   3.599767E+00   3.585502E+00   3.569083E+00   3.518194E+00   3.458933E+00   3.366246E+00   3.277602E+00   3.189003E+00   3.124296E+00   3.088064E+00   3.089402E+00   3.108817E+00   3.145874E+00   3.206858E+00   3.294725E+00   3.408778E+00   3.546068E+00   3.701200E+00   3.869310E+00   4.044121E+00   4.212837E+00   4.363827E+00   4.476778E+00   4.542725E+00   4.578509E+00   4.539452E+00   4.450017E+00   4.313907E+00   4.167029E+00   4.017001E+00   3.866550E+00   3.721330E+00   3.617314E+00   3.532146E+00   3.477635E+00   3.426673E+00   3.378195E+00   3.326958E+00   3.299436E+00   3.291442E+00   3.285562E+00   3.282882E+00   3.269499E+00   3.241967E+00   3.198118E+00   3.151941E+00   3.091610E+00   3.019211E+00   2.953034E+00   2.904777E+00   2.881438E+00   2.896990E+00   2.956024E+00   3.048510E+00   3.177705E+00   3.316754E+00   3.439714E+00   3.541247E+00   3.620576E+00   3.660147E+00   3.671226E+00   3.654850E+00   3.608088E+00   3.537122E+00   3.463368E+00   3.395161E+00   3.346937E+00   3.318583E+00   3.306079E+00   3.307118E+00   3.317618E+00   3.331100E+00   3.344998E+00   3.346492E+00   3.339959E+00   3.320550E+00   3.291780E+00   3.255737E+00   3.224271E+00   3.214407E+00   3.223361E+00   3.257032E+00   3.326828E+00   3.449653E+00   3.571694E+00   3.708172E+00   3.808267E+00   3.861000E+00   3.866034E+00   3.817628E+00   3.748312E+00   3.659055E+00   3.553296E+00   3.436285E+00   3.309451E+00   3.182929E+00   3.082169E+00   3.002857E+00   2.939651E+00   2.899095E+00   2.875626E+00   2.857867E+00   2.842602E+00   2.823062E+00   2.810419E+00   2.814393E+00   2.823876E+00   2.855617E+00   2.913110E+00   2.996838E+00   3.108271E+00   3.251649E+00   3.408162E+00   3.570961E+00   3.748568E+00   3.920051E+00   4.087066E+00   4.236491E+00   4.382005E+00   4.511923E+00   4.608379E+00   4.648978E+00   4.659443E+00   4.639471E+00   4.593962E+00   4.519416E+00   4.415934E+00   4.309820E+00   4.212752E+00   4.140339E+00   4.086941E+00   4.074018E+00   4.088873E+00   4.139247E+00   4.223098E+00   4.297766E+00   4.407379E+00   4.526360E+00   4.681520E+00   4.855185E+00   5.038475E+00   5.183162E+00   5.230894E+00   5.195846E+00   5.072993E+00   4.905473E+00   4.710633E+00   4.497539E+00   4.284753E+00   4.077276E+00   3.883574E+00   3.689482E+00   3.513124E+00   3.339087E+00   3.194898E+00   3.067011E+00   2.986105E+00   2.935639E+00   2.910779E+00   2.919004E+00   2.971544E+00   3.068220E+00   3.207906E+00   3.373926E+00   3.558186E+00   3.746555E+00   3.909745E+00   4.045743E+00   4.142410E+00   4.213433E+00   4.270849E+00   4.313214E+00   4.348062E+00   4.379305E+00   4.414633E+00   4.424907E+00   4.420068E+00   4.381887E+00   4.328551E+00   4.247644E+00   4.152948E+00   4.068375E+00   4.004956E+00   4.004103E+00   4.019032E+00   4.045079E+00   4.059830E+00   4.058248E+00   4.055018E+00   4.037048E+00   4.011888E+00   3.986786E+00   3.982352E+00
   3.911449E+00   3.831515E+00   3.749120E+00   3.665330E+00   3.598413E+00   3.527499E+00   3.482055E+00   3.448159E+00   3.426342E+00   3.389808E+00   3.342241E+00   3.261509E+00   3.174535E+00   3.070464E+00   2.974521E+00   2.897180E+00   2.853180E+00   2.845858E+00   2.866085E+00   2.912351E+00   2.976327E+00   3.079006E+00   3.215585E+00   3.387361E+00   3.576798E+00   3.793140E+00   4.037762E+00   4.276397E+00   4.495269E+00   4.657331E+00   4.768209E+00   4.801359E+00   4.762775E+00   4.652673E+00   4.500605E+00   4.293033E+00   4.082426E+00   3.863285E+00   3.680094E+00   3.528689E+00   3.416031E+00   3.325289E+00   3.259080E+00   3.194438E+00   3.126845E+00   3.063590E+00   3.038958E+00   3.013905E+00   3.011944E+00   3.010901E+00   3.004348E+00   2.979159E+00   2.953056E+00   2.897748E+00   2.834673E+00   2.772631E+00   2.717866E+00   2.691942E+00   2.709846E+00   2.779303E+00   2.893853E+00   3.038779E+00   3.197153E+00   3.348039E+00   3.465517E+00   3.536983E+00   3.565911E+00   3.555215E+00   3.505810E+00   3.430077E+00   3.324129E+00   3.223021E+00   3.130126E+00   3.063391E+00   3.021452E+00   3.001192E+00   3.009107E+00   3.033907E+00   3.075031E+00   3.111530E+00   3.131466E+00   3.131835E+00   3.116979E+00   3.074470E+00   3.034599E+00   2.993554E+00   2.965186E+00   2.957943E+00   2.984732E+00   3.066947E+00   3.196524E+00   3.362342E+00   3.524032E+00   3.668052E+00   3.738988E+00   3.748653E+00   3.707958E+00   3.629943E+00   3.533959E+00   3.403629E+00   3.256037E+00   3.102069E+00   2.953305E+00   2.817498E+00   2.714620E+00   2.634008E+00   2.576862E+00   2.543775E+00   2.525951E+00   2.512297E+00   2.502330E+00   2.501076E+00   2.520365E+00   2.552256E+00   2.595109E+00   2.671709E+00   2.768880E+00   2.892258E+00   3.055814E+00   3.236772E+00   3.429695E+00   3.652761E+00   3.878019E+00   4.097886E+00   4.299585E+00   4.472539E+00   4.633502E+00   4.738946E+00   4.800930E+00   4.799946E+00   4.755311E+00   4.667106E+00   4.541979E+00   4.403487E+00   4.262840E+00   4.145375E+00   4.047424E+00   4.002518E+00   3.998157E+00   4.043360E+00   4.128562E+00   4.227506E+00   4.360003E+00   4.515655E+00   4.711506E+00   4.935315E+00   5.205553E+00   5.455884E+00   5.643879E+00   5.717799E+00   5.675676E+00   5.513048E+00   5.266004E+00   4.981542E+00   4.677581E+00   4.377786E+00   4.084572E+00   3.800925E+00   3.528891E+00   3.281129E+00   3.065409E+00   2.875245E+00   2.742980E+00   2.651890E+00   2.600066E+00   2.586511E+00   2.616564E+00   2.692538E+00   2.815851E+00   2.983623E+00   3.191407E+00   3.408076E+00   3.631704E+00   3.835878E+00   4.016130E+00   4.145971E+00   4.243625E+00   4.309442E+00   4.361481E+00   4.400035E+00   4.423000E+00   4.430440E+00   4.437297E+00   4.415476E+00   4.373965E+00   4.306282E+00   4.231562E+00   4.167284E+00   4.107577E+00   4.083268E+00   4.095684E+00   4.140699E+00   4.191548E+00   4.206573E+00   4.196562E+00   4.158379E+00   4.116789E+00   4.076199E+00   4.039370E+00   4.009675E+00
   3.896392E+00   3.808071E+00   3.706661E+00   3.617122E+00   3.544054E+00   3.483335E+00   3.426342E+00   3.386234E+00   3.348455E+00   3.304882E+00   3.237587E+00   3.161996E+00   3.060344E+00   2.958563E+00   2.860983E+00   2.788104E+00   2.737947E+00   2.722023E+00   2.738780E+00   2.785449E+00   2.846869E+00   2.944066E+00   3.081052E+00   3.263634E+00   3.476154E+00   3.717981E+00   3.983396E+00   4.264709E+00   4.516561E+00   4.716423E+00   4.850497E+00   4.915886E+00   4.877933E+00   4.797060E+00   4.627422E+00   4.407882E+00   4.159646E+00   3.904519E+00   3.671322E+00   3.492194E+00   3.347632E+00   3.228846E+00   3.124463E+00   3.028152E+00   2.943551E+00   2.872838E+00   2.826916E+00   2.791191E+00   2.786374E+00   2.799888E+00   2.824742E+00   2.847739E+00   2.864025E+00   2.863282E+00   2.830049E+00   2.784732E+00   2.741562E+00   2.726090E+00   2.748899E+00   2.821629E+00   2.941308E+00   3.095716E+00   3.256377E+00   3.401653E+00   3.504770E+00   3.551412E+00   3.541261E+00   3.483397E+00   3.397185E+00   3.283923E+00   3.158197E+00   3.025173E+00   2.914793E+00   2.825298E+00   2.781662E+00   2.772500E+00   2.795713E+00   2.836207E+00   2.896006E+00   2.947855E+00   2.992538E+00   3.008530E+00   2.996248E+00   2.955495E+00   2.894503E+00   2.837260E+00   2.786992E+00   2.764559E+00   2.784134E+00   2.852070E+00   2.985020E+00   3.145631E+00   3.331719E+00   3.492179E+00   3.601062E+00   3.640662E+00   3.616716E+00   3.548864E+00   3.453922E+00   3.323865E+00   3.169338E+00   2.996001E+00   2.833055E+00   2.695052E+00   2.574261E+00   2.488161E+00   2.434242E+00   2.393780E+00   2.381124E+00   2.367043E+00   2.370593E+00   2.385098E+00   2.415772E+00   2.465982E+00   2.529762E+00   2.616028E+00   2.714198E+00   2.835345E+00   2.981708E+00   3.154804E+00   3.350067E+00   3.571222E+00   3.813346E+00   4.059199E+00   4.280835E+00   4.464440E+00   4.609153E+00   4.704439E+00   4.742004E+00   4.729431E+00   4.662699E+00   4.552136E+00   4.400618E+00   4.236700E+00   4.082977E+00   3.945267E+00   3.857109E+00   3.807973E+00   3.816971E+00   3.888326E+00   4.005835E+00   4.150670E+00   4.329855E+00   4.554250E+00   4.812054E+00   5.115177E+00   5.422927E+00   5.737983E+00   5.979470E+00   6.085439E+00   6.044462E+00   5.856286E+00   5.551541E+00   5.188803E+00   4.810467E+00   4.452044E+00   4.092682E+00   3.748575E+00   3.425016E+00   3.138438E+00   2.889274E+00   2.700536E+00   2.550648E+00   2.445083E+00   2.391461E+00   2.380199E+00   2.412692E+00   2.497464E+00   2.633950E+00   2.831095E+00   3.049865E+00   3.291856E+00   3.531882E+00   3.766520E+00   3.958132E+00   4.113234E+00   4.209491E+00   4.281753E+00   4.319344E+00   4.339492E+00   4.337443E+00   4.334902E+00   4.302918E+00   4.280731E+00   4.231235E+00   4.189195E+00   4.154958E+00   4.129468E+00   4.138551E+00   4.185082E+00   4.258791E+00   4.340971E+00   4.394153E+00   4.415841E+00   4.386342E+00   4.323610E+00   4.237297E+00   4.156270E+00   4.092139E+00   4.036621E+00
   3.901775E+00   3.809863E+00   3.713103E+00   3.630290E+00   3.558609E+00   3.493073E+00   3.438180E+00   3.386728E+00   3.350192E+00   3.288876E+00   3.216516E+00   3.121704E+00   3.023571E+00   2.922781E+00   2.831414E+00   2.753237E+00   2.701806E+00   2.678816E+00   2.699845E+00   2.742585E+00   2.817633E+00   2.926472E+00   3.056150E+00   3.230122E+00   3.438184E+00   3.675270E+00   3.932406E+00   4.187479E+00   4.435178E+00   4.641763E+00   4.792184E+00   4.872334E+00   4.908735E+00   4.864639E+00   4.746736E+00   4.554127E+00   4.323970E+00   4.030277E+00   3.759105E+00   3.508693E+00   3.314022E+00   3.156563E+00   3.022602E+00   2.903661E+00   2.799600E+00   2.721316E+00   2.671110E+00   2.638995E+00   2.636616E+00   2.670271E+00   2.738667E+00   2.822899E+00   2.910020E+00   2.960545E+00   2.976138E+00   2.960308E+00   2.945519E+00   2.944909E+00   2.983001E+00   3.057676E+00   3.184517E+00   3.341504E+00   3.498852E+00   3.627282E+00   3.703171E+00   3.705408E+00   3.643445E+00   3.535030E+00   3.394196E+00   3.237770E+00   3.074165E+00   2.924159E+00   2.788425E+00   2.691316E+00   2.641787E+00   2.636328E+00   2.665400E+00   2.729503E+00   2.800220E+00   2.866434E+00   2.918404E+00   2.931576E+00   2.906413E+00   2.851948E+00   2.782029E+00   2.705252E+00   2.636949E+00   2.599518E+00   2.599438E+00   2.654065E+00   2.769983E+00   2.935970E+00   3.119461E+00   3.298937E+00   3.442426E+00   3.518493E+00   3.534459E+00   3.508855E+00   3.444952E+00   3.340982E+00   3.192941E+00   3.013265E+00   2.849658E+00   2.706925E+00   2.596446E+00   2.519038E+00   2.464552E+00   2.428518E+00   2.404785E+00   2.406941E+00   2.422230E+00   2.448523E+00   2.486593E+00   2.553134E+00   2.621631E+00   2.697984E+00   2.789546E+00   2.882985E+00   3.000351E+00   3.140983E+00   3.319844E+00   3.524091E+00   3.753716E+00   3.991908E+00   4.188254E+00   4.355999E+00   4.461845E+00   4.500230E+00   4.506154E+00   4.485575E+00   4.419613E+00   4.310374E+00   4.155295E+00   4.002384E+00   3.841177E+00   3.702574E+00   3.601819E+00   3.566538E+00   3.585706E+00   3.675376E+00   3.812366E+00   4.004968E+00   4.233828E+00   4.506493E+00   4.817862E+00   5.152774E+00   5.490512E+00   5.838020E+00   6.114060E+00   6.269433E+00   6.251771E+00   6.082275E+00   5.759384E+00   5.355546E+00   4.927952E+00   4.504690E+00   4.098970E+00   3.720286E+00   3.368536E+00   3.066266E+00   2.811038E+00   2.601005E+00   2.445426E+00   2.332272E+00   2.270587E+00   2.254802E+00   2.288159E+00   2.376125E+00   2.523244E+00   2.715287E+00   2.944756E+00   3.190754E+00   3.443193E+00   3.688935E+00   3.913333E+00   4.079930E+00   4.192765E+00   4.246640E+00   4.279406E+00   4.268359E+00   4.247805E+00   4.206524E+00   4.172474E+00   4.134983E+00   4.107769E+00   4.081007E+00   4.088247E+00   4.122522E+00   4.193408E+00   4.300924E+00   4.423705E+00   4.541292E+00   4.623215E+00   4.634132E+00   4.598203E+00   4.522851E+00   4.414794E+00   4.300392E+00   4.189270E+00   4.089388E+00
   3.927726E+00   3.860531E+00   3.788496E+00   3.723040E+00   3.643532E+00   3.574866E+00   3.506958E+00   3.459930E+00   3.412394E+00   3.347498E+00   3.262823E+00   3.164114E+00   3.052888E+00   2.956223E+00   2.864895E+00   2.791415E+00   2.733350E+00   2.716248E+00   2.734691E+00   2.797908E+00   2.881595E+00   2.997565E+00   3.127777E+00   3.292818E+00   3.480168E+00   3.680985E+00   3.901244E+00   4.137900E+00   4.358249E+00   4.559097E+00   4.716064E+00   4.837122E+00   4.928912E+00   4.954609E+00   4.886702E+00   4.749326E+00   4.529174E+00   4.227095E+00   3.908324E+00   3.604247E+00   3.351003E+00   3.144565E+00   2.970748E+00   2.836968E+00   2.728172E+00   2.642647E+00   2.593668E+00   2.572443E+00   2.599653E+00   2.666916E+00   2.776062E+00   2.913341E+00   3.051515E+00   3.165971E+00   3.228029E+00   3.263897E+00   3.281275E+00   3.301250E+00   3.351101E+00   3.445823E+00   3.576758E+00   3.732553E+00   3.894636E+00   4.002949E+00   4.042947E+00   3.995746E+00   3.873061E+00   3.711288E+00   3.518133E+00   3.313515E+00   3.125500E+00   2.946526E+00   2.803435E+00   2.694566E+00   2.639030E+00   2.634285E+00   2.659665E+00   2.716880E+00   2.790064E+00   2.847714E+00   2.889899E+00   2.890629E+00   2.853065E+00   2.790167E+00   2.706943E+00   2.614067E+00   2.526930E+00   2.465684E+00   2.452655E+00   2.498197E+00   2.602075E+00   2.761178E+00   2.956219E+00   3.156659E+00   3.335544E+00   3.461144E+00   3.530988E+00   3.550953E+00   3.522708E+00   3.437171E+00   3.299943E+00   3.144284E+00   2.984797E+00   2.848022E+00   2.744026E+00   2.675635E+00   2.636276E+00   2.606269E+00   2.594880E+00   2.592301E+00   2.609358E+00   2.639365E+00   2.691261E+00   2.750658E+00   2.812835E+00   2.870485E+00   2.921157E+00   2.980815E+00   3.060432E+00   3.169316E+00   3.313427E+00   3.483026E+00   3.679560E+00   3.872173E+00   4.036776E+00   4.143459E+00   4.185907E+00   4.176783E+00   4.163979E+00   4.130473E+00   4.092619E+00   4.018435E+00   3.918067E+00   3.791982E+00   3.648833E+00   3.509833E+00   3.405555E+00   3.358905E+00   3.389602E+00   3.480563E+00   3.633113E+00   3.854995E+00   4.108771E+00   4.401838E+00   4.728099E+00   5.082598E+00   5.441144E+00   5.797647E+00   6.092950E+00   6.275465E+00   6.310875E+00   6.158486E+00   5.832526E+00   5.429976E+00   4.998618E+00   4.558744E+00   4.133185E+00   3.731839E+00   3.385329E+00   3.080685E+00   2.821200E+00   2.606385E+00   2.437089E+00   2.311206E+00   2.234119E+00   2.206280E+00   2.235547E+00   2.314877E+00   2.455805E+00   2.643942E+00   2.873276E+00   3.127848E+00   3.389034E+00   3.644283E+00   3.861032E+00   4.029850E+00   4.142628E+00   4.209055E+00   4.220099E+00   4.215887E+00   4.167821E+00   4.131034E+00   4.083643E+00   4.053201E+00   4.027104E+00   4.033977E+00   4.065399E+00   4.130064E+00   4.237421E+00   4.388312E+00   4.552921E+00   4.687690E+00   4.764449E+00   4.776495E+00   4.729528E+00   4.654879E+00   4.559290E+00   4.432674E+00   4.291608E+00   4.145129E+00
   3.979191E+00   3.956000E+00   3.915974E+00   3.846004E+00   3.787081E+00   3.702099E+00   3.640222E+00   3.585064E+00   3.538389E+00   3.469674E+00   3.374458E+00   3.260565E+00   3.136899E+00   3.032456E+00   2.942850E+00   2.871480E+00   2.819477E+00   2.790690E+00   2.819945E+00   2.883390E+00   2.984313E+00   3.110299E+00   3.236923E+00   3.391415E+00   3.556743E+00   3.739980E+00   3.941293E+00   4.130579E+00   4.330867E+00   4.528780E+00   4.722015E+00   4.876084E+00   4.993832E+00   5.068044E+00   5.074608E+00   4.980392E+00   4.779086E+00   4.475645E+00   4.123956E+00   3.773623E+00   3.476191E+00   3.219227E+00   3.016135E+00   2.854990E+00   2.731408E+00   2.650513E+00   2.602014E+00   2.606203E+00   2.658694E+00   2.753489E+00   2.901352E+00   3.083086E+00   3.264207E+00   3.424918E+00   3.535278E+00   3.600377E+00   3.640517E+00   3.670567E+00   3.741926E+00   3.855126E+00   4.003395E+00   4.173995E+00   4.336245E+00   4.434970E+00   4.438092E+00   4.351714E+00   4.189121E+00   3.980229E+00   3.749871E+00   3.520651E+00   3.295966E+00   3.104818E+00   2.944138E+00   2.833025E+00   2.760235E+00   2.730682E+00   2.735679E+00   2.772204E+00   2.824209E+00   2.867084E+00   2.880607E+00   2.862925E+00   2.808610E+00   2.741915E+00   2.651315E+00   2.550833E+00   2.460098E+00   2.394025E+00   2.382290E+00   2.432531E+00   2.542884E+00   2.699284E+00   2.900829E+00   3.110670E+00   3.316588E+00   3.494543E+00   3.621148E+00   3.674468E+00   3.670971E+00   3.599923E+00   3.484256E+00   3.344290E+00   3.200567E+00   3.072254E+00   2.982229E+00   2.926233E+00   2.895944E+00   2.879537E+00   2.874019E+00   2.873227E+00   2.885399E+00   2.914351E+00   2.965274E+00   3.022424E+00   3.066203E+00   3.108282E+00   3.122026E+00   3.138876E+00   3.170433E+00   3.220984E+00   3.308437E+00   3.420925E+00   3.553408E+00   3.683218E+00   3.774699E+00   3.814517E+00   3.802917E+00   3.771849E+00   3.744529E+00   3.737276E+00   3.736102E+00   3.736710E+00   3.699825E+00   3.620842E+00   3.521890E+00   3.398866E+00   3.292421E+00   3.230274E+00   3.250347E+00   3.344198E+00   3.513486E+00   3.754467E+00   4.031236E+00   4.333565E+00   4.646525E+00   4.979329E+00   5.326391E+00   5.670923E+00   5.978742E+00   6.190500E+00   6.240100E+00   6.110552E+00   5.834781E+00   5.472640E+00   5.047209E+00   4.617236E+00   4.185108E+00   3.797886E+00   3.451108E+00   3.153072E+00   2.899313E+00   2.672895E+00   2.492129E+00   2.356982E+00   2.272418E+00   2.236252E+00   2.257884E+00   2.327024E+00   2.455340E+00   2.631870E+00   2.853868E+00   3.110928E+00   3.385781E+00   3.642901E+00   3.848553E+00   3.999703E+00   4.091981E+00   4.131432E+00   4.142416E+00   4.115986E+00   4.074363E+00   4.032252E+00   3.995120E+00   3.959975E+00   3.949526E+00   3.954989E+00   4.000460E+00   4.075901E+00   4.202836E+00   4.372148E+00   4.537120E+00   4.675663E+00   4.759253E+00   4.768397E+00   4.728276E+00   4.656102E+00   4.567029E+00   4.446686E+00   4.311386E+00   4.159066E+00
   4.043871E+00   4.084105E+00   4.071342E+00   4.037175E+00   3.960785E+00   3.884952E+00   3.813473E+00   3.759337E+00   3.692866E+00   3.603956E+00   3.479926E+00   3.350037E+00   3.221216E+00   3.113987E+00   3.027524E+00   2.968334E+00   2.913454E+00   2.900740E+00   2.924143E+00   2.988859E+00   3.087967E+00   3.214237E+00   3.341900E+00   3.478541E+00   3.627189E+00   3.797397E+00   3.965783E+00   4.147801E+00   4.341945E+00   4.551931E+00   4.756488E+00   4.954865E+00   5.105371E+00   5.217787E+00   5.244079E+00   5.180380E+00   5.009346E+00   4.736556E+00   4.380773E+00   4.003949E+00   3.651820E+00   3.363764E+00   3.126681E+00   2.945019E+00   2.819535E+00   2.735728E+00   2.706939E+00   2.716678E+00   2.787133E+00   2.908855E+00   3.080263E+00   3.272175E+00   3.458000E+00   3.628287E+00   3.747964E+00   3.826253E+00   3.874539E+00   3.941248E+00   4.036371E+00   4.175964E+00   4.367068E+00   4.566495E+00   4.749570E+00   4.856637E+00   4.848201E+00   4.724638E+00   4.530851E+00   4.301957E+00   4.057503E+00   3.806161E+00   3.578350E+00   3.379073E+00   3.202139E+00   3.065955E+00   2.968274E+00   2.905969E+00   2.886262E+00   2.880790E+00   2.896381E+00   2.905019E+00   2.900100E+00   2.859247E+00   2.798695E+00   2.724247E+00   2.643039E+00   2.555264E+00   2.475877E+00   2.430807E+00   2.431581E+00   2.497178E+00   2.613851E+00   2.782306E+00   2.976250E+00   3.193756E+00   3.412644E+00   3.608547E+00   3.763901E+00   3.838510E+00   3.843421E+00   3.785217E+00   3.673153E+00   3.547288E+00   3.416316E+00   3.299047E+00   3.212728E+00   3.164817E+00   3.149004E+00   3.143757E+00   3.148003E+00   3.159889E+00   3.178860E+00   3.207505E+00   3.260148E+00   3.310886E+00   3.340362E+00   3.345748E+00   3.324432E+00   3.287755E+00   3.258212E+00   3.244905E+00   3.259703E+00   3.297948E+00   3.354374E+00   3.410111E+00   3.442376E+00   3.444359E+00   3.415336E+00   3.382442E+00   3.375302E+00   3.390534E+00   3.445256E+00   3.503238E+00   3.536117E+00   3.519690E+00   3.462602E+00   3.370247E+00   3.285078E+00   3.228525E+00   3.243639E+00   3.323142E+00   3.491669E+00   3.742371E+00   4.035079E+00   4.339542E+00   4.637242E+00   4.932564E+00   5.240651E+00   5.557793E+00   5.847469E+00   6.060241E+00   6.143748E+00   6.063323E+00   5.840370E+00   5.501873E+00   5.102559E+00   4.675265E+00   4.269458E+00   3.885775E+00   3.559817E+00   3.277742E+00   3.028049E+00   2.793408E+00   2.600693E+00   2.452189E+00   2.351896E+00   2.308903E+00   2.313893E+00   2.382320E+00   2.499506E+00   2.668792E+00   2.871737E+00   3.122528E+00   3.384905E+00   3.627222E+00   3.814706E+00   3.943724E+00   4.011652E+00   4.035442E+00   4.031584E+00   3.989982E+00   3.960629E+00   3.940816E+00   3.914708E+00   3.893055E+00   3.875489E+00   3.878122E+00   3.913698E+00   3.978700E+00   4.088192E+00   4.229092E+00   4.381691E+00   4.500890E+00   4.581555E+00   4.594211E+00   4.575914E+00   4.527670E+00   4.442853E+00   4.360878E+00   4.255153E+00   4.139272E+00
   4.118112E+00   4.210678E+00   4.262548E+00   4.249846E+00   4.208308E+00   4.124936E+00   4.064958E+00   3.997155E+00   3.909012E+00   3.779376E+00   3.618528E+00   3.458763E+00   3.315145E+00   3.196499E+00   3.115492E+00   3.067963E+00   3.035937E+00   3.024184E+00   3.037295E+00   3.090851E+00   3.170339E+00   3.276063E+00   3.403426E+00   3.531861E+00   3.672317E+00   3.816492E+00   3.980129E+00   4.159712E+00   4.383628E+00   4.596578E+00   4.814033E+00   5.006149E+00   5.181767E+00   5.289597E+00   5.336170E+00   5.285429E+00   5.156356E+00   4.925196E+00   4.611695E+00   4.239434E+00   3.877595E+00   3.554311E+00   3.295134E+00   3.101147E+00   2.959775E+00   2.877180E+00   2.846858E+00   2.876596E+00   2.957613E+00   3.078181E+00   3.238117E+00   3.413625E+00   3.595360E+00   3.736349E+00   3.842732E+00   3.910023E+00   3.973490E+00   4.058245E+00   4.187789E+00   4.376682E+00   4.612199E+00   4.859583E+00   5.051953E+00   5.165379E+00   5.162676E+00   5.044896E+00   4.843611E+00   4.611018E+00   4.366670E+00   4.128294E+00   3.917396E+00   3.720670E+00   3.535375E+00   3.382392E+00   3.238651E+00   3.138341E+00   3.068266E+00   3.020250E+00   2.986692E+00   2.955827E+00   2.921029E+00   2.867459E+00   2.804835E+00   2.742417E+00   2.669672E+00   2.617000E+00   2.576349E+00   2.566234E+00   2.601641E+00   2.682245E+00   2.829361E+00   3.011222E+00   3.223639E+00   3.450674E+00   3.654249E+00   3.813696E+00   3.943843E+00   4.021206E+00   4.009798E+00   3.952993E+00   3.842215E+00   3.726861E+00   3.610519E+00   3.506680E+00   3.426013E+00   3.373477E+00   3.342866E+00   3.343928E+00   3.354358E+00   3.379906E+00   3.413406E+00   3.449504E+00   3.492357E+00   3.513151E+00   3.511239E+00   3.486138E+00   3.432884E+00   3.358476E+00   3.270394E+00   3.190018E+00   3.132817E+00   3.100430E+00   3.091461E+00   3.086432E+00   3.077566E+00   3.064593E+00   3.046409E+00   3.046750E+00   3.070075E+00   3.129310E+00   3.220111E+00   3.330137E+00   3.413706E+00   3.461220E+00   3.454534E+00   3.416342E+00   3.355148E+00   3.320238E+00   3.334391E+00   3.425612E+00   3.584013E+00   3.818720E+00   4.091652E+00   4.376828E+00   4.643340E+00   4.915661E+00   5.189649E+00   5.482283E+00   5.739643E+00   5.937209E+00   6.021184E+00   5.969455E+00   5.783387E+00   5.506671E+00   5.158276E+00   4.773764E+00   4.398452E+00   4.036813E+00   3.707470E+00   3.424883E+00   3.168908E+00   2.935923E+00   2.729252E+00   2.576444E+00   2.472514E+00   2.422734E+00   2.430508E+00   2.485174E+00   2.601611E+00   2.751781E+00   2.948622E+00   3.172679E+00   3.408872E+00   3.626687E+00   3.803897E+00   3.901017E+00   3.955277E+00   3.968626E+00   3.953344E+00   3.917766E+00   3.893088E+00   3.872795E+00   3.862292E+00   3.836218E+00   3.818000E+00   3.802433E+00   3.815798E+00   3.857300E+00   3.933897E+00   4.037720E+00   4.145171E+00   4.243902E+00   4.295406E+00   4.320762E+00   4.320849E+00   4.298299E+00   4.258407E+00   4.217279E+00   4.165467E+00   4.084844E+00