# LPF package for  MODFLOW-2005, generated by Flopy.
         0    -1E+30         0  
         0
         0
   1.000000E+00
         0
         0
INTERNAL               1 (200E15.6) -1 #hk layer 1                    
   3.962816E+00   3.935314E+00   3.904682E+00   3.862683E+00   3.833947E+00   3.813528E+00   3.802174E+00   3.789428E+00   3.787808E+00   3.761541E+00   3.732100E+00   3.689069E+00   3.641832E+00   3.585420E+00   3.527823E+00   3.488919E+00   3.471414E+00   3.475739E+00   3.488008E+00   3.515121E+00   3.555645E+00   3.610380E+00   3.676414E+00   3.769930E+00   3.856620E+00   3.942807E+00   4.024179E+00   4.102760E+00   4.173515E+00   4.229020E+00   4.263615E+00   4.278296E+00   4.262605E+00   4.208869E+00   4.144226E+00   4.061120E+00   3.983706E+00   3.902514E+00   3.837315E+00   3.780375E+00   3.734297E+00   3.704924E+00   3.677530E+00   3.641313E+00   3.611982E+00   3.596045E+00   3.597684E+00   3.596255E+00   3.596884E+00   3.587530E+00   3.565763E+00   3.538380E+00   3.502540E+00   3.460876E+00   3.425156E+00   3.380424E+00   3.348123E+00   3.330703E+00   3.342683E+00   3.384881E+00   3.438000E+00   3.508775E+00   3.589123E+00   3.667685E+00   3.725053E+00   3.774322E+00   3.803903E+00   3.824136E+00   3.826081E+00   3.806132E+00   3.768690E+00   3.724286E+00   3.683896E+00   3.658826E+00   3.654714E+00   3.647146E+00   3.655415E+00   3.651731E+00   3.644557E+00   3.635159E+00   3.635789E+00   3.623797E+00   3.611485E+00   3.599559E+00   3.583177E+00   3.572334E+00   3.570114E+00   3.582432E+00   3.598396E+00   3.649191E+00   3.715066E+00   3.791078E+00   3.863459E+00   3.918503E+00   3.938236E+00   3.934461E+00   3.911969E+00   3.868341E+00   3.820378E+00   3.755426E+00   3.689001E+00   3.614567E+00   3.539029E+00   3.483737E+00   3.437008E+00   3.398814E+00   3.375636E+00   3.354530E+00   3.352576E+00   3.341040E+00   3.328752E+00   3.309038E+00   3.299429E+00   3.305082E+00   3.313896E+00   3.344020E+00   3.403400E+00   3.481880E+00   3.577372E+00   3.681826E+00   3.773045E+00   3.873274E+00   3.962892E+00   4.047196E+00   4.126898E+00   4.192392E+00   4.267986E+00   4.324941E+00   4.356557E+00   4.372839E+00   4.360025E+00   4.335390E+00   4.308195E+00   4.267428E+00   4.212823E+00   4.168916E+00   4.110921E+00   4.072201E+00   4.050313E+00   4.051451E+00   4.074154E+00   4.106723E+00   4.158719E+00   4.213252E+00   4.279470E+00   4.349083E+00   4.431397E+00   4.525224E+00   4.590795E+00   4.617055E+00   4.595998E+00   4.545518E+00   4.458068E+00   4.371140E+00   4.269455E+00   4.164198E+00   4.064201E+00   3.962263E+00   3.866632E+00   3.760820E+00   3.673608E+00   3.573082E+00   3.493805E+00   3.439960E+00   3.401797E+00   3.384998E+00   3.389024E+00   3.415085E+00   3.461272E+00   3.544778E+00   3.647634E+00   3.756731E+00   3.870486E+00   3.969494E+00   4.043366E+00   4.094617E+00   4.129202E+00   4.160601E+00   4.187097E+00   4.202143E+00   4.221958E+00   4.238052E+00   4.251449E+00   4.250159E+00   4.238689E+00   4.202009E+00   4.152946E+00   4.089826E+00   4.031990E+00   3.993589E+00   3.975548E+00   3.977398E+00   3.985324E+00   4.000353E+00   4.005185E+00   4.010230E+00   4.009908E+00   3.991147E+00   3.983149E+00   3.979263E+00
   3.931139E+00   3.887820E+00   3.829915E+00   3.762749E+00   3.694702E+00   3.655680E+00   3.623682E+00   3.599903E+00   3.585631E+00   3.569212E+00   3.518333E+00   3.459087E+00   3.366420E+00   3.277798E+00   3.189220E+00   3.124536E+00   3.088327E+00   3.089691E+00   3.109132E+00   3.146210E+00   3.207213E+00   3.295097E+00   3.409165E+00   3.546467E+00   3.701605E+00   3.869715E+00   4.044518E+00   4.213222E+00   4.364194E+00   4.477123E+00   4.543052E+00   4.578818E+00   4.539734E+00   4.450257E+00   4.314090E+00   4.167145E+00   4.017053E+00   3.866535E+00   3.721259E+00   3.617187E+00   3.531968E+00   3.477406E+00   3.426398E+00   3.377884E+00   3.326626E+00   3.299092E+00   3.291100E+00   3.285235E+00   3.282582E+00   3.269235E+00   3.241747E+00   3.197939E+00   3.151801E+00   3.091505E+00   3.019131E+00   2.952973E+00   2.904729E+00   2.881400E+00   2.896956E+00   2.955994E+00   3.048477E+00   3.177671E+00   3.316717E+00   3.439673E+00   3.541202E+00   3.620529E+00   3.660092E+00   3.671160E+00   3.654762E+00   3.607968E+00   3.536956E+00   3.463150E+00   3.394888E+00   3.346616E+00   3.318223E+00   3.305689E+00   3.306717E+00   3.317226E+00   3.330737E+00   3.344682E+00   3.346246E+00   3.339791E+00   3.320460E+00   3.291769E+00   3.255793E+00   3.224377E+00   3.214553E+00   3.223535E+00   3.257224E+00   3.327036E+00   3.449876E+00   3.571929E+00   3.708416E+00   3.808516E+00   3.861245E+00   3.866277E+00   3.817873E+00   3.748562E+00   3.659311E+00   3.553559E+00   3.436554E+00   3.309724E+00   3.183204E+00   3.082448E+00   3.003141E+00   2.939943E+00   2.899402E+00   2.875952E+00   2.858211E+00   2.842962E+00   2.823430E+00   2.810782E+00   2.814739E+00   2.824194E+00   2.855896E+00   2.913340E+00   2.997011E+00   3.108380E+00   3.251686E+00   3.408127E+00   3.570845E+00   3.748366E+00   3.919764E+00   4.086698E+00   4.236046E+00   4.381487E+00   4.511344E+00   4.607756E+00   4.648338E+00   4.658805E+00   4.638852E+00   4.593369E+00   4.518859E+00   4.415412E+00   4.309330E+00   4.212289E+00   4.139893E+00   4.086503E+00   4.073579E+00   4.088428E+00   4.138797E+00   4.222645E+00   4.297328E+00   4.406964E+00   4.525985E+00   4.681198E+00   4.854936E+00   5.038312E+00   5.183090E+00   5.230907E+00   5.195935E+00   5.073144E+00   4.905669E+00   4.710865E+00   4.497784E+00   4.284998E+00   4.077501E+00   3.883766E+00   3.689632E+00   3.513232E+00   3.339149E+00   3.194919E+00   3.067000E+00   2.986071E+00   2.935589E+00   2.910718E+00   2.918933E+00   2.971464E+00   3.068130E+00   3.207799E+00   3.373793E+00   3.558016E+00   3.746332E+00   3.909461E+00   4.045387E+00   4.141986E+00   4.212941E+00   4.270299E+00   4.312630E+00   4.347465E+00   4.378723E+00   4.414087E+00   4.424421E+00   4.419662E+00   4.381572E+00   4.328318E+00   4.247483E+00   4.152838E+00   4.068296E+00   4.004887E+00   4.004024E+00   4.018929E+00   4.044943E+00   4.059658E+00   4.058049E+00   4.054808E+00   4.036849E+00   4.011719E+00   3.986665E+00   3.982286E+00
   3.911505E+00   3.831620E+00   3.749269E+00   3.665509E+00   3.598605E+00   3.527690E+00   3.482239E+00   3.448332E+00   3.426503E+00   3.389967E+00   3.342409E+00   3.261696E+00   3.174742E+00   3.070693E+00   2.974773E+00   2.897459E+00   2.853489E+00   2.846201E+00   2.866461E+00   2.912757E+00   2.976759E+00   3.079463E+00   3.216064E+00   3.387858E+00   3.577307E+00   3.793657E+00   4.038284E+00   4.276916E+00   4.495778E+00   4.657823E+00   4.768675E+00   4.801797E+00   4.763166E+00   4.653000E+00   4.500846E+00   4.293184E+00   4.082483E+00   3.863261E+00   3.679997E+00   3.528531E+00   3.415815E+00   3.325018E+00   3.258756E+00   3.194072E+00   3.126452E+00   3.063188E+00   3.038562E+00   3.013530E+00   3.011600E+00   3.010599E+00   3.004092E+00   2.978953E+00   2.952897E+00   2.897628E+00   2.834584E+00   2.772563E+00   2.717813E+00   2.691898E+00   2.709804E+00   2.779260E+00   2.893806E+00   3.038726E+00   3.197092E+00   3.347970E+00   3.465442E+00   3.536900E+00   3.565815E+00   3.555102E+00   3.505670E+00   3.429899E+00   3.323903E+00   3.222738E+00   3.129786E+00   3.062999E+00   3.021013E+00   3.000722E+00   3.008625E+00   3.033435E+00   3.074594E+00   3.111155E+00   3.131176E+00   3.131643E+00   3.116891E+00   3.074477E+00   3.034688E+00   2.993703E+00   2.965383E+00   2.958169E+00   2.984981E+00   3.067214E+00   3.196810E+00   3.362646E+00   3.524353E+00   3.668381E+00   3.739317E+00   3.748982E+00   3.708289E+00   3.630274E+00   3.534297E+00   3.403970E+00   3.256380E+00   3.102412E+00   2.953649E+00   2.817840E+00   2.714968E+00   2.634366E+00   2.577237E+00   2.544174E+00   2.526376E+00   2.512743E+00   2.502786E+00   2.501529E+00   2.520803E+00   2.552665E+00   2.595476E+00   2.672022E+00   2.769126E+00   2.892427E+00   3.055895E+00   3.236753E+00   3.429568E+00   3.652516E+00   3.877651E+00   4.097389E+00   4.298958E+00   4.471793E+00   4.632652E+00   4.738023E+00   4.799967E+00   4.798980E+00   4.754367E+00   4.666206E+00   4.541133E+00   4.402694E+00   4.262096E+00   4.144669E+00   4.046744E+00   4.001846E+00   3.997483E+00   4.042672E+00   4.127862E+00   4.226802E+00   4.359308E+00   4.514991E+00   4.710890E+00   4.934776E+00   5.205110E+00   5.455560E+00   5.643685E+00   5.717731E+00   5.675730E+00   5.513200E+00   5.266234E+00   4.981826E+00   4.677897E+00   4.378100E+00   4.084863E+00   3.801167E+00   3.529073E+00   3.281247E+00   3.065468E+00   2.875249E+00   2.742945E+00   2.651825E+00   2.599979E+00   2.586408E+00   2.616447E+00   2.692408E+00   2.815703E+00   2.983450E+00   3.191198E+00   3.407814E+00   3.631374E+00   3.835463E+00   4.015622E+00   4.145369E+00   4.242935E+00   4.308678E+00   4.360667E+00   4.399205E+00   4.422188E+00   4.429685E+00   4.436628E+00   4.414919E+00   4.373530E+00   4.305967E+00   4.231351E+00   4.167151E+00   4.107494E+00   4.083202E+00   4.095606E+00   4.140587E+00   4.191381E+00   4.206351E+00   4.196299E+00   4.158100E+00   4.116523E+00   4.075974E+00   4.039209E+00   4.009591E+00
   3.896453E+00   3.808187E+00   3.706822E+00   3.617314E+00   3.544262E+00   3.483545E+00   3.426546E+00   3.386424E+00   3.348632E+00   3.305052E+00   3.237760E+00   3.162185E+00   3.060552E+00   2.958793E+00   2.861240E+00   2.788394E+00   2.738271E+00   2.722385E+00   2.739178E+00   2.785880E+00   2.847329E+00   2.944552E+00   3.081563E+00   3.264172E+00   3.476712E+00   3.718555E+00   3.983979E+00   4.265298E+00   4.517145E+00   4.716997E+00   4.851046E+00   4.916393E+00   4.878377E+00   4.797417E+00   4.627675E+00   4.408026E+00   4.159691E+00   3.904475E+00   3.671209E+00   3.492021E+00   3.347405E+00   3.228567E+00   3.124140E+00   3.027790E+00   2.943164E+00   2.872444E+00   2.826529E+00   2.790826E+00   2.786039E+00   2.799591E+00   2.824486E+00   2.847530E+00   2.863863E+00   2.863159E+00   2.829958E+00   2.784663E+00   2.741511E+00   2.726046E+00   2.748859E+00   2.821584E+00   2.941255E+00   3.095647E+00   3.256291E+00   3.401549E+00   3.504654E+00   3.551281E+00   3.541114E+00   3.483230E+00   3.396993E+00   3.283694E+00   3.157922E+00   3.024846E+00   2.914413E+00   2.824870E+00   2.781196E+00   2.772004E+00   2.795206E+00   2.835711E+00   2.895548E+00   2.947467E+00   2.992241E+00   3.008341E+00   2.996170E+00   2.955522E+00   2.894614E+00   2.837436E+00   2.787212E+00   2.764810E+00   2.784406E+00   2.852359E+00   2.985328E+00   3.145958E+00   3.332066E+00   3.492541E+00   3.601431E+00   3.641034E+00   3.617089E+00   3.549235E+00   3.454294E+00   3.324238E+00   3.169712E+00   2.996373E+00   2.833427E+00   2.695426E+00   2.574642E+00   2.488557E+00   2.434663E+00   2.394233E+00   2.381613E+00   2.367555E+00   2.371118E+00   2.385626E+00   2.416289E+00   2.466474E+00   2.530212E+00   2.616421E+00   2.714516E+00   2.835573E+00   2.981834E+00   3.154814E+00   3.349948E+00   3.570963E+00   3.812936E+00   4.058624E+00   4.280092E+00   4.463539E+00   4.608116E+00   4.703299E+00   4.740804E+00   4.728215E+00   4.661505E+00   4.550990E+00   4.399537E+00   4.235686E+00   4.082022E+00   3.944361E+00   3.856227E+00   3.807098E+00   3.816087E+00   3.887421E+00   4.004908E+00   4.149728E+00   4.328917E+00   4.553338E+00   4.811194E+00   5.114398E+00   5.422259E+00   5.737449E+00   5.979095E+00   6.085228E+00   6.044412E+00   5.856370E+00   5.551731E+00   5.189071E+00   4.810779E+00   4.452365E+00   4.092978E+00   3.748818E+00   3.425188E+00   3.138537E+00   2.889305E+00   2.700510E+00   2.550579E+00   2.444981E+00   2.391333E+00   2.380050E+00   2.412526E+00   2.497279E+00   2.633744E+00   2.830856E+00   3.049580E+00   3.291510E+00   3.531458E+00   3.766001E+00   3.957511E+00   4.112508E+00   4.208669E+00   4.280849E+00   4.318393E+00   4.338525E+00   4.336504E+00   4.334029E+00   4.302155E+00   4.280099E+00   4.230749E+00   4.188851E+00   4.154738E+00   4.129347E+00   4.138494E+00   4.185052E+00   4.258753E+00   4.340889E+00   4.394003E+00   4.415617E+00   4.386063E+00   4.323305E+00   4.237006E+00   4.156023E+00   4.091960E+00   4.036528E+00
   3.901839E+00   3.809983E+00   3.713269E+00   3.630488E+00   3.558824E+00   3.493293E+00   3.438392E+00   3.386926E+00   3.350375E+00   3.289049E+00   3.216685E+00   3.121882E+00   3.023764E+00   2.922995E+00   2.831655E+00   2.753513E+00   2.702119E+00   2.679168E+00   2.700236E+00   2.743012E+00   2.818092E+00   2.926962E+00   3.056665E+00   3.230663E+00   3.438747E+00   3.675851E+00   3.932996E+00   4.188073E+00   4.435773E+00   4.642349E+00   4.792739E+00   4.872841E+00   4.909166E+00   4.864973E+00   4.746955E+00   4.554235E+00   4.323976E+00   4.030201E+00   3.758970E+00   3.508511E+00   3.313802E+00   3.156306E+00   3.022313E+00   2.903344E+00   2.799266E+00   2.720976E+00   2.670777E+00   2.638678E+00   2.636321E+00   2.670001E+00   2.738428E+00   2.822698E+00   2.909859E+00   2.960424E+00   2.976050E+00   2.960245E+00   2.945476E+00   2.944875E+00   2.982967E+00   3.057634E+00   3.184458E+00   3.341419E+00   3.498736E+00   3.627135E+00   3.702995E+00   3.705210E+00   3.643228E+00   3.534793E+00   3.393935E+00   3.237475E+00   3.073832E+00   2.923783E+00   2.788007E+00   2.690861E+00   2.641304E+00   2.635824E+00   2.664886E+00   2.729000E+00   2.799759E+00   2.866043E+00   2.918110E+00   2.931395E+00   2.906343E+00   2.851979E+00   2.782142E+00   2.705424E+00   2.637160E+00   2.599753E+00   2.599691E+00   2.654332E+00   2.770266E+00   2.936273E+00   3.119783E+00   3.299277E+00   3.442780E+00   3.518853E+00   3.534822E+00   3.509220E+00   3.445321E+00   3.341356E+00   3.193318E+00   3.013643E+00   2.850042E+00   2.707320E+00   2.596863E+00   2.519484E+00   2.465033E+00   2.429040E+00   2.405344E+00   2.407531E+00   2.422839E+00   2.449136E+00   2.487195E+00   2.553711E+00   2.622164E+00   2.698448E+00   2.789926E+00   2.883263E+00   3.000514E+00   3.141016E+00   3.319737E+00   3.523828E+00   3.753284E+00   3.991294E+00   4.187456E+00   4.355022E+00   4.460720E+00   4.498995E+00   4.504850E+00   4.484239E+00   4.418284E+00   4.309082E+00   4.154065E+00   4.001222E+00   3.840078E+00   3.701526E+00   3.600801E+00   3.565526E+00   3.584682E+00   3.674326E+00   3.811286E+00   4.003861E+00   4.232712E+00   4.505394E+00   4.816804E+00   5.151797E+00   5.489646E+00   5.837293E+00   6.113500E+00   6.269055E+00   6.251574E+00   6.082236E+00   5.759478E+00   5.355737E+00   4.928204E+00   4.504963E+00   4.099221E+00   3.720489E+00   3.368672E+00   3.066331E+00   2.811038E+00   2.600947E+00   2.445324E+00   2.332135E+00   2.270425E+00   2.254618E+00   2.287956E+00   2.375901E+00   2.522991E+00   2.715000E+00   2.944420E+00   3.190353E+00   3.442711E+00   3.688355E+00   3.912644E+00   4.079134E+00   4.191870E+00   4.245674E+00   4.278395E+00   4.267347E+00   4.246829E+00   4.205632E+00   4.171700E+00   4.134357E+00   4.107300E+00   4.080698E+00   4.088078E+00   4.122465E+00   4.193428E+00   4.300976E+00   4.423748E+00   4.541288E+00   4.623133E+00   4.633966E+00   4.597968E+00   4.522574E+00   4.414516E+00   4.300153E+00   4.189094E+00   4.089297E+00
   3.927791E+00   3.860651E+00   3.788664E+00   3.723240E+00   3.643752E+00   3.575090E+00   3.507178E+00   3.460135E+00   3.412585E+00   3.347676E+00   3.262995E+00   3.164287E+00   3.053068E+00   2.956421E+00   2.865117E+00   2.791668E+00   2.733638E+00   2.716578E+00   2.735061E+00   2.798320E+00   2.882040E+00   2.998039E+00   3.128275E+00   3.293338E+00   3.480706E+00   3.681535E+00   3.901803E+00   4.138463E+00   4.358809E+00   4.559645E+00   4.716577E+00   4.837573E+00   4.929276E+00   4.954863E+00   4.886842E+00   4.749357E+00   4.529114E+00   4.226970E+00   3.908158E+00   3.604061E+00   3.350804E+00   3.144351E+00   2.970519E+00   2.836722E+00   2.727913E+00   2.642385E+00   2.593407E+00   2.572188E+00   2.599409E+00   2.666688E+00   2.775855E+00   2.913161E+00   3.051368E+00   3.165860E+00   3.227951E+00   3.263846E+00   3.281243E+00   3.301224E+00   3.351076E+00   3.445781E+00   3.576687E+00   3.732438E+00   3.894469E+00   4.002732E+00   4.042684E+00   3.995449E+00   3.872739E+00   3.710945E+00   3.517769E+00   3.313124E+00   3.125076E+00   2.946070E+00   2.802948E+00   2.694057E+00   2.638503E+00   2.633745E+00   2.659125E+00   2.716357E+00   2.789584E+00   2.847308E+00   2.889589E+00   2.890432E+00   2.852978E+00   2.790178E+00   2.707027E+00   2.614203E+00   2.527099E+00   2.465871E+00   2.452853E+00   2.498407E+00   2.602295E+00   2.761413E+00   2.956472E+00   3.156926E+00   3.335826E+00   3.461437E+00   3.531288E+00   3.551264E+00   3.523028E+00   3.437504E+00   3.300289E+00   3.144645E+00   2.985184E+00   2.848444E+00   2.744492E+00   2.676152E+00   2.636850E+00   2.606891E+00   2.595547E+00   2.592998E+00   2.610071E+00   2.640077E+00   2.691957E+00   2.751322E+00   2.813442E+00   2.871010E+00   2.921579E+00   2.981118E+00   3.060609E+00   3.169361E+00   3.313327E+00   3.482769E+00   3.679132E+00   3.871563E+00   4.035979E+00   4.142492E+00   4.184801E+00   4.175576E+00   4.162699E+00   4.129153E+00   4.091284E+00   4.017113E+00   3.916779E+00   3.790745E+00   3.647654E+00   3.508707E+00   3.404466E+00   3.357831E+00   3.388518E+00   3.479458E+00   3.631979E+00   3.853827E+00   4.107582E+00   4.400652E+00   4.726948E+00   5.081506E+00   5.440153E+00   5.796785E+00   6.092245E+00   6.274933E+00   6.310524E+00   6.158301E+00   5.832485E+00   5.430048E+00   4.998768E+00   4.558928E+00   4.133366E+00   3.731980E+00   3.385415E+00   3.080711E+00   2.821167E+00   2.606299E+00   2.436963E+00   2.311049E+00   2.233938E+00   2.206078E+00   2.235326E+00   2.314636E+00   2.455539E+00   2.643640E+00   2.872928E+00   3.127436E+00   3.388541E+00   3.643695E+00   3.860340E+00   4.029054E+00   4.141744E+00   4.208105E+00   4.219119E+00   4.214906E+00   4.166895E+00   4.130193E+00   4.082928E+00   4.052638E+00   4.026713E+00   4.033752E+00   4.065326E+00   4.130115E+00   4.237556E+00   4.388487E+00   4.553091E+00   4.687811E+00   4.764486E+00   4.776436E+00   4.729384E+00   4.654680E+00   4.559077E+00   4.432477E+00   4.291462E+00   4.145054E+00
   3.979257E+00   3.956127E+00   3.916150E+00   3.846219E+00   3.787320E+00   3.702343E+00   3.640461E+00   3.585290E+00   3.538599E+00   3.469868E+00   3.374639E+00   3.260741E+00   3.137076E+00   3.032644E+00   2.943057E+00   2.871715E+00   2.819744E+00   2.790992E+00   2.820284E+00   2.883766E+00   2.984722E+00   3.110735E+00   3.237379E+00   3.391887E+00   3.557229E+00   3.740474E+00   3.941792E+00   4.131081E+00   4.331361E+00   4.529257E+00   4.722453E+00   4.876453E+00   4.994103E+00   5.068202E+00   5.074650E+00   4.980333E+00   4.778954E+00   4.475472E+00   4.123768E+00   3.773439E+00   3.476017E+00   3.219061E+00   3.015971E+00   2.854820E+00   2.731233E+00   2.650332E+00   2.601829E+00   2.606017E+00   2.658511E+00   2.753311E+00   2.901185E+00   3.082937E+00   3.264085E+00   3.424828E+00   3.535220E+00   3.600345E+00   3.640500E+00   3.670551E+00   3.741897E+00   3.855064E+00   4.003279E+00   4.173809E+00   4.335977E+00   4.434624E+00   4.437685E+00   4.351264E+00   4.188644E+00   3.979731E+00   3.749356E+00   3.520114E+00   3.295409E+00   3.104242E+00   2.943545E+00   2.832420E+00   2.759624E+00   2.730071E+00   2.735081E+00   2.771635E+00   2.823693E+00   2.866642E+00   2.880263E+00   2.862688E+00   2.808478E+00   2.741874E+00   2.651345E+00   2.550910E+00   2.460198E+00   2.394137E+00   2.382407E+00   2.432654E+00   2.543011E+00   2.699416E+00   2.900971E+00   3.110820E+00   3.316749E+00   3.494716E+00   3.621337E+00   3.674675E+00   3.671198E+00   3.600178E+00   3.484541E+00   3.344618E+00   3.200948E+00   3.072704E+00   2.982755E+00   2.926841E+00   2.896630E+00   2.880291E+00   2.874827E+00   2.874063E+00   2.886238E+00   2.915178E+00   2.966072E+00   3.023170E+00   3.066873E+00   3.108852E+00   3.122470E+00   3.139188E+00   3.170610E+00   3.221022E+00   3.308331E+00   3.420671E+00   3.552998E+00   3.682645E+00   3.773970E+00   3.813647E+00   3.801934E+00   3.770776E+00   3.743391E+00   3.736082E+00   3.734869E+00   3.735451E+00   3.698564E+00   3.619605E+00   3.520693E+00   3.397717E+00   3.291316E+00   3.229200E+00   3.249278E+00   3.343115E+00   3.512378E+00   3.753325E+00   4.030066E+00   4.332391E+00   4.645375E+00   4.978235E+00   5.325380E+00   5.670018E+00   5.977967E+00   6.189878E+00   6.239634E+00   6.110245E+00   5.834617E+00   5.472593E+00   5.047247E+00   4.617321E+00   4.185203E+00   3.797962E+00   3.451147E+00   3.153065E+00   2.899260E+00   2.672800E+00   2.492000E+00   2.356826E+00   2.272241E+00   2.236057E+00   2.257672E+00   2.326795E+00   2.455089E+00   2.631591E+00   2.853550E+00   3.110556E+00   3.385336E+00   3.642370E+00   3.847929E+00   3.998986E+00   4.091189E+00   4.130590E+00   4.141549E+00   4.115132E+00   4.073558E+00   4.031538E+00   3.994532E+00   3.959545E+00   3.949266E+00   3.954900E+00   4.000525E+00   4.076090E+00   4.203117E+00   4.372474E+00   4.537445E+00   4.675935E+00   4.759437E+00   4.768478E+00   4.728262E+00   4.656017E+00   4.566906E+00   4.446558E+00   4.311287E+00   4.159013E+00
   4.043939E+00   4.084239E+00   4.071536E+00   4.037413E+00   3.961049E+00   3.885225E+00   3.813745E+00   3.759601E+00   3.693114E+00   3.604185E+00   3.480138E+00   3.350236E+00   3.221409E+00   3.114183E+00   3.027731E+00   2.968563E+00   2.913703E+00   2.901017E+00   2.924447E+00   2.989190E+00   3.088320E+00   3.214610E+00   3.342286E+00   3.478937E+00   3.627592E+00   3.797801E+00   3.966187E+00   4.148205E+00   4.342340E+00   4.552303E+00   4.756814E+00   4.955120E+00   5.105531E+00   5.217837E+00   5.244025E+00   5.180238E+00   5.009152E+00   4.736341E+00   4.380565E+00   4.003767E+00   3.651669E+00   3.363637E+00   3.126568E+00   2.944911E+00   2.819426E+00   2.735615E+00   2.706819E+00   2.716554E+00   2.787006E+00   2.908732E+00   3.080143E+00   3.272067E+00   3.457912E+00   3.628221E+00   3.747922E+00   3.826229E+00   3.874523E+00   3.941221E+00   4.036316E+00   4.175855E+00   4.366876E+00   4.566192E+00   4.749151E+00   4.856109E+00   4.847589E+00   4.723969E+00   4.530152E+00   4.301239E+00   4.056774E+00   3.805421E+00   3.577604E+00   3.378322E+00   3.201390E+00   3.065211E+00   2.967544E+00   2.905257E+00   2.885579E+00   2.880152E+00   2.895804E+00   2.904526E+00   2.899703E+00   2.858954E+00   2.798501E+00   2.724136E+00   2.642991E+00   2.555257E+00   2.475889E+00   2.430823E+00   2.431596E+00   2.497188E+00   2.613858E+00   2.782307E+00   2.976247E+00   3.193752E+00   3.412639E+00   3.608550E+00   3.763921E+00   3.838557E+00   3.843504E+00   3.785350E+00   3.673347E+00   3.547559E+00   3.416678E+00   3.299513E+00   3.213306E+00   3.165508E+00   3.149803E+00   3.144645E+00   3.148955E+00   3.160869E+00   3.179833E+00   3.208446E+00   3.261037E+00   3.311699E+00   3.341075E+00   3.346339E+00   3.324880E+00   3.288056E+00   3.258369E+00   3.244921E+00   3.259587E+00   3.297699E+00   3.353997E+00   3.409609E+00   3.441754E+00   3.443631E+00   3.414523E+00   3.381558E+00   3.374351E+00   3.389520E+00   3.444178E+00   3.502108E+00   3.534950E+00   3.518517E+00   3.461449E+00   3.369133E+00   3.284007E+00   3.227491E+00   3.242624E+00   3.322131E+00   3.490644E+00   3.741322E+00   4.034008E+00   4.338468E+00   4.636189E+00   4.931561E+00   5.239714E+00   5.556943E+00   5.846724E+00   6.059612E+00   6.143247E+00   6.062955E+00   5.840127E+00   5.501734E+00   5.102502E+00   4.675257E+00   4.269472E+00   3.885791E+00   3.559817E+00   3.277715E+00   3.027991E+00   2.793325E+00   2.600585E+00   2.452059E+00   2.351746E+00   2.308736E+00   2.313714E+00   2.382128E+00   2.499301E+00   2.668570E+00   2.871491E+00   3.122244E+00   3.384570E+00   3.626819E+00   3.814228E+00   3.943169E+00   4.011032E+00   4.034780E+00   4.030903E+00   3.989316E+00   3.960011E+00   3.940285E+00   3.914302E+00   3.892801E+00   3.875398E+00   3.878191E+00   3.913914E+00   3.979038E+00   4.088621E+00   4.229570E+00   4.382170E+00   4.501322E+00   4.581903E+00   4.594458E+00   4.576059E+00   4.527728E+00   4.442853E+00   4.360843E+00   4.255113E+00   4.139248E+00
   4.118188E+00   4.210830E+00   4.262769E+00   4.250119E+00   4.208614E+00   4.125259E+00   4.065288E+00   3.997484E+00   3.909329E+00   3.779673E+00   3.618800E+00   3.459012E+00   3.315381E+00   3.196728E+00   3.115725E+00   3.068201E+00   3.036187E+00   3.024444E+00   3.037565E+00   3.091128E+00   3.170622E+00   3.276350E+00   3.403718E+00   3.532152E+00   3.672604E+00   3.816774E+00   3.980406E+00   4.159983E+00   4.383886E+00   4.596808E+00   4.814214E+00   5.006266E+00   5.181797E+00   5.289528E+00   5.336009E+00   5.285200E+00   5.156093E+00   4.924936E+00   4.611466E+00   4.239250E+00   3.877458E+00   3.554211E+00   3.295060E+00   3.101085E+00   2.959718E+00   2.877121E+00   2.846793E+00   2.876524E+00   2.957539E+00   3.078107E+00   3.238045E+00   3.413556E+00   3.595301E+00   3.736301E+00   3.842695E+00   3.909993E+00   3.973457E+00   4.058192E+00   4.187682E+00   4.376493E+00   4.611889E+00   4.859130E+00   5.051346E+00   5.164632E+00   5.161819E+00   5.043967E+00   4.842647E+00   4.610039E+00   4.365686E+00   4.127313E+00   3.916421E+00   3.719710E+00   3.534437E+00   3.381481E+00   3.237777E+00   3.137506E+00   3.067480E+00   3.019527E+00   2.986048E+00   2.955274E+00   2.920578E+00   2.867109E+00   2.804579E+00   2.742236E+00   2.669545E+00   2.616906E+00   2.576266E+00   2.566149E+00   2.601543E+00   2.682131E+00   2.829228E+00   3.011072E+00   3.223471E+00   3.450490E+00   3.654051E+00   3.813499E+00   3.943660E+00   4.021053E+00   4.009700E+00   3.952971E+00   3.842292E+00   3.727056E+00   3.610846E+00   3.507152E+00   3.426628E+00   3.374232E+00   3.343745E+00   3.344915E+00   3.355414E+00   3.380990E+00   3.414475E+00   3.450522E+00   3.493298E+00   3.513985E+00   3.511947E+00   3.486706E+00   3.433296E+00   3.358732E+00   3.270507E+00   3.190000E+00   3.132682E+00   3.100188E+00   3.091122E+00   3.086008E+00   3.077062E+00   3.064018E+00   3.045772E+00   3.046053E+00   3.069317E+00   3.128483E+00   3.219212E+00   3.329168E+00   3.412681E+00   3.460165E+00   3.453478E+00   3.415310E+00   3.354155E+00   3.319284E+00   3.333468E+00   3.424704E+00   3.583111E+00   3.817811E+00   4.090743E+00   4.375926E+00   4.642461E+00   4.914826E+00   5.188871E+00   5.481575E+00   5.739014E+00   5.936671E+00   6.020739E+00   5.969106E+00   5.783130E+00   5.506498E+00   5.158166E+00   4.773702E+00   4.398419E+00   4.036794E+00   3.707451E+00   3.424853E+00   3.168863E+00   2.935861E+00   2.729176E+00   2.576352E+00   2.472406E+00   2.422614E+00   2.430379E+00   2.485041E+00   2.601475E+00   2.751641E+00   2.948475E+00   3.172518E+00   3.408684E+00   3.626453E+00   3.803612E+00   3.900674E+00   3.954880E+00   3.968189E+00   3.952891E+00   3.917327E+00   3.892691E+00   3.872479E+00   3.862091E+00   3.836159E+00   3.818089E+00   3.802668E+00   3.816167E+00   3.857784E+00   3.934466E+00   4.038337E+00   4.145790E+00   4.244475E+00   4.295903E+00   4.321163E+00   4.321150E+00   4.298504E+00   4.258533E+00   4.217348E+00   4.165498E+00   4.084857E+00