# GHB package for  MODFLOW-2005, generated by Flopy.
      7876         0
      7876         0 # stress period 1
         1         2        90            0.01          1000.0
         1         2        91            0.01          1000.0
         1         2        92            0.01          1000.0
         1         2        93            0.01          1000.0
         1         2        94            0.01          1000.0
         1         2        95            0.01          1000.0
         1         2        96            0.01          1000.0
         1         2        97            0.01          1000.0
         1         2        98            0.01          1000.0
         1         2        99            0.01          1000.0
         1         2       100            0.01          1000.0
         1         2       101            0.01          1000.0
         1         2       102            0.01          1000.0
         1         2       103            0.01          1000.0
         1         2       104            0.01          1000.0
         1         2       105            0.01          1000.0
         1         2       106            0.01          1000.0
         1         2       107            0.01          1000.0
         1         2       108            0.01          1000.0
         1         2       109            0.01          1000.0
         1         2       110            0.01          1000.0
         1         2       111            0.01          1000.0
         1         2       112            0.01          1000.0
         1         2       113            0.01          1000.0
         1         2       114            0.01          1000.0
         1         2       115            0.01          1000.0
         1         2       116            0.01          1000.0
         1         2       117            0.01          1000.0
         1         2       118            0.01          1000.0
         1         2       119            0.01          1000.0
         1         2       120            0.01          1000.0
         1         2       121            0.01          1000.0
         1         2       122            0.01          1000.0
         1         2       123            0.01          1000.0
         1         2       124            0.01          1000.0
         1         2       125            0.01          1000.0
         1         2       126            0.01          1000.0
         1         2       127            0.01          1000.0
         1         2       128            0.01          1000.0
         1         2       129            0.01          1000.0
         1         2       130            0.01          1000.0
         1         2       131            0.01          1000.0
         1         2       132            0.01          1000.0
         1         2       133            0.01          1000.0
         1         2       134            0.01          1000.0
         1         2       135            0.01          1000.0
         1         2       136            0.01          1000.0
         1         2       137            0.01          1000.0
         1         2       138            0.01          1000.0
         1         2       139            0.01          1000.0
         1         2       140            0.01          1000.0
         1         2       141            0.01          1000.0
         1         2       142            0.01          1000.0
         1         2       143            0.01          1000.0
         1         2       144            0.01          1000.0
         1         2       145            0.01          1000.0
         1         2       146            0.01          1000.0
         1         2       147            0.01          1000.0
         1         2       148            0.01          1000.0
         1         2       149            0.01          1000.0
         1         2       150            0.01          1000.0
         1         2       151            0.01          1000.0
         1         2       152            0.01          1000.0
         1         2       153            0.01          1000.0
         1         2       154            0.01          1000.0
         1         2       155            0.01          1000.0
         1         2       156            0.01          1000.0
         1         2       157            0.01          1000.0
         1         2       158            0.01          1000.0
         1         2       159            0.01          1000.0
         1         2       160            0.01          1000.0
         1         2       161            0.01          1000.0
         1         2       162            0.01          1000.0
         1         2       163            0.01          1000.0
         1         2       164            0.01          1000.0
         1         2       165            0.01          1000.0
         1         2       166            0.01          1000.0
         1         2       167            0.01          1000.0
         1         2       168            0.01          1000.0
         1         2       169            0.01          1000.0
         1         2       170            0.01          1000.0
         1         2       171            0.01          1000.0
         1         2       172            0.01          1000.0
         1         2       173            0.01          1000.0
         1         2       174            0.01          1000.0
         1         2       175            0.01          1000.0
         1         2       176            0.01          1000.0
         1         2       177            0.01          1000.0
         1         2       178            0.01          1000.0
         1         2       179            0.01          1000.0
         1         2       180            0.01          1000.0
         1         2       181            0.01          1000.0
         1         2       182            0.01          1000.0
         1         2       183            0.01          1000.0
         1         2       184            0.01          1000.0
         1         2       185            0.01          1000.0
         1         2       186            0.01          1000.0
         1         2       187            0.01          1000.0
         1         2       188            0.01          1000.0
         1         2       189            0.01          1000.0
         1         2       190            0.01          1000.0
         1         2       191            0.01          1000.0
         1         2       192            0.01          1000.0
         1         2       193            0.01          1000.0
         1         2       194            0.01          1000.0
         1         2       195            0.01          1000.0
         1         2       196            0.01          1000.0
         1         2       197            0.01          1000.0
         1         2       198            0.01          1000.0
         1         2       199            0.01          1000.0
         1         3        89            0.01          1000.0
         1         3        90            0.01          1000.0
         1         3        91            0.01          1000.0
         1         3        92            0.01          1000.0
         1         3        93            0.01          1000.0
         1         3        94            0.01          1000.0
         1         3        95            0.01          1000.0
         1         3        96            0.01          1000.0
         1         3        97            0.01          1000.0
         1         3        98            0.01          1000.0
         1         3        99            0.01          1000.0
         1         3       100            0.01          1000.0
         1         3       101            0.01          1000.0
         1         3       102            0.01          1000.0
         1         3       103            0.01          1000.0
         1         3       104            0.01          1000.0
         1         3       105            0.01          1000.0
         1         3       106            0.01          1000.0
         1         3       107            0.01          1000.0
         1         3       108            0.01          1000.0
         1         3       109            0.01          1000.0
         1         3       110            0.01          1000.0
         1         3       111            0.01          1000.0
         1         3       112            0.01          1000.0
         1         3       113            0.01          1000.0
         1         3       114            0.01          1000.0
         1         3       115            0.01          1000.0
         1         3       116            0.01          1000.0
         1         3       117            0.01          1000.0
         1         3       118            0.01          1000.0
         1         3       119            0.01          1000.0
         1         3       120            0.01          1000.0
         1         3       121            0.01          1000.0
         1         3       122            0.01          1000.0
         1         3       123            0.01          1000.0
         1         3       124            0.01          1000.0
         1         3       125            0.01          1000.0
         1         3       126            0.01          1000.0
         1         3       127            0.01          1000.0
         1         3       128            0.01          1000.0
         1         3       129            0.01          1000.0
         1         3       130            0.01          1000.0
         1         3       131            0.01          1000.0
         1         3       132            0.01          1000.0
         1         3       133            0.01          1000.0
         1         3       134            0.01          1000.0
         1         3       135            0.01          1000.0
         1         3       136            0.01          1000.0
         1         3       137            0.01          1000.0
         1         3       138            0.01          1000.0
         1         3       139            0.01          1000.0
         1         3       140            0.01          1000.0
         1         3       141            0.01          1000.0
         1         3       142            0.01          1000.0
         1         3       143            0.01          1000.0
         1         3       144            0.01          1000.0
         1         3       145            0.01          1000.0
         1         3       146            0.01          1000.0
         1         3       147            0.01          1000.0
         1         3       148            0.01          1000.0
         1         3       149            0.01          1000.0
         1         3       150            0.01          1000.0
         1         3       151            0.01          1000.0
         1         3       152            0.01          1000.0
         1         3       153            0.01          1000.0
         1         3       154            0.01          1000.0
         1         3       155            0.01          1000.0
         1         3       156            0.01          1000.0
         1         3       157            0.01          1000.0
         1         3       158            0.01          1000.0
         1         3       159            0.01          1000.0
         1         3       160            0.01          1000.0
         1         3       161            0.01          1000.0
         1         3       162            0.01          1000.0
         1         3       163            0.01          1000.0
         1         3       164            0.01          1000.0
         1         3       165            0.01          1000.0
         1         3       166            0.01          1000.0
         1         3       167            0.01          1000.0
         1         3       168            0.01          1000.0
         1         3       169            0.01          1000.0
         1         3       170            0.01          1000.0
         1         3       171            0.01          1000.0
         1         3       172            0.01          1000.0
         1         3       173            0.01          1000.0
         1         3       174            0.01          1000.0
         1         3       175            0.01          1000.0
         1         3       176            0.01          1000.0
         1         3       177            0.01          1000.0
         1         3       178            0.01          1000.0
         1         3       179            0.01          1000.0
         1         3       180            0.01          1000.0
         1         3       181            0.01          1000.0
         1         3       182            0.01          1000.0
         1         3       183            0.01          1000.0
         1         3       184            0.01          1000.0
         1         3       185            0.01          1000.0
         1         3       186            0.01          1000.0
         1         3       187            0.01          1000.0
         1         3       188            0.01          1000.0
         1         3       189            0.01          1000.0
         1         3       190            0.01          1000.0
         1         3       191            0.01          1000.0
         1         3       192            0.01          1000.0
         1         3       193            0.01          1000.0
         1         3       194            0.01          1000.0
         1         3       195            0.01          1000.0
         1         3       196            0.01          1000.0
         1         3       197            0.01          1000.0
         1         3       198            0.01          1000.0
         1         3       199            0.01          1000.0
         1         4        89            0.01          1000.0
         1         4        90            0.01          1000.0
         1         4        91            0.01          1000.0
         1         4        92            0.01          1000.0
         1         4        93            0.01          1000.0
         1         4        94            0.01          1000.0
         1         4        95            0.01          1000.0
         1         4        96            0.01          1000.0
         1         4        97            0.01          1000.0
         1         4        98            0.01          1000.0
         1         4        99            0.01          1000.0
         1         4       100            0.01          1000.0
         1         4       101            0.01          1000.0
         1         4       102            0.01          1000.0
         1         4       103            0.01          1000.0
         1         4       104            0.01          1000.0
         1         4       105            0.01          1000.0
         1         4       106            0.01          1000.0
         1         4       107            0.01          1000.0
         1         4       108            0.01          1000.0
         1         4       109            0.01          1000.0
         1         4       110            0.01          1000.0
         1         4       111            0.01          1000.0
         1         4       112            0.01          1000.0
         1         4       113            0.01          1000.0
         1         4       114            0.01          1000.0
         1         4       115            0.01          1000.0
         1         4       116            0.01          1000.0
         1         4       117            0.01          1000.0
         1         4       118            0.01          1000.0
         1         4       119            0.01          1000.0
         1         4       120            0.01          1000.0
         1         4       121            0.01          1000.0
         1         4       122            0.01          1000.0
         1         4       123            0.01          1000.0
         1         4       124            0.01          1000.0
         1         4       125            0.01          1000.0
         1         4       126            0.01          1000.0
         1         4       127            0.01          1000.0
         1         4       128            0.01          1000.0
         1         4       129            0.01          1000.0
         1         4       130            0.01          1000.0
         1         4       131            0.01          1000.0
         1         4       132            0.01          1000.0
         1         4       133            0.01          1000.0
         1         4       134            0.01          1000.0
         1         4       135            0.01          1000.0
         1         4       136            0.01          1000.0
         1         4       137            0.01          1000.0
         1         4       138            0.01          1000.0
         1         4       139            0.01          1000.0
         1         4       140            0.01          1000.0
         1         4       141            0.01          1000.0
         1         4       142            0.01          1000.0
         1         4       143            0.01          1000.0
         1         4       144            0.01          1000.0
         1         4       145            0.01          1000.0
         1         4       146            0.01          1000.0
         1         4       147            0.01          1000.0
         1         4       148            0.01          1000.0
         1         4       149            0.01          1000.0
         1         4       150            0.01          1000.0
         1         4       151            0.01          1000.0
         1         4       152            0.01          1000.0
         1         4       153            0.01          1000.0
         1         4       154            0.01          1000.0
         1         4       155            0.01          1000.0
         1         4       156            0.01          1000.0
         1         4       157            0.01          1000.0
         1         4       158            0.01          1000.0
         1         4       159            0.01          1000.0
         1         4       160            0.01          1000.0
         1         4       161            0.01          1000.0
         1         4       162            0.01          1000.0
         1         4       163            0.01          1000.0
         1         4       164            0.01          1000.0
         1         4       165            0.01          1000.0
         1         4       166            0.01          1000.0
         1         4       167            0.01          1000.0
         1         4       168            0.01          1000.0
         1         4       169            0.01          1000.0
         1         4       170            0.01          1000.0
         1         4       171            0.01          1000.0
         1         4       172            0.01          1000.0
         1         4       173            0.01          1000.0
         1         4       174            0.01          1000.0
         1         4       175            0.01          1000.0
         1         4       176            0.01          1000.0
         1         4       177            0.01          1000.0
         1         4       178            0.01          1000.0
         1         4       179            0.01          1000.0
         1         4       180            0.01          1000.0
         1         4       181            0.01          1000.0
         1         4       182            0.01          1000.0
         1         4       183            0.01          1000.0
         1         4       184            0.01          1000.0
         1         4       185            0.01          1000.0
         1         4       186            0.01          1000.0
         1         4       187            0.01          1000.0
         1         4       188            0.01          1000.0
         1         4       189            0.01          1000.0
         1         4       190            0.01          1000.0
         1         4       191            0.01          1000.0
         1         4       192            0.01          1000.0
         1         4       193            0.01          1000.0
         1         4       194            0.01          1000.0
         1         4       195            0.01          1000.0
         1         4       196            0.01          1000.0
         1         4       197            0.01          1000.0
         1         4       198            0.01          1000.0
         1         4       199            0.01          1000.0
         1         5        88            0.01          1000.0
         1         5        89            0.01          1000.0
         1         5        90            0.01          1000.0
         1         5        91            0.01          1000.0
         1         5        92            0.01          1000.0
         1         5        93            0.01          1000.0
         1         5        94            0.01          1000.0
         1         5        95            0.01          1000.0
         1         5        96            0.01          1000.0
         1         5        97            0.01          1000.0
         1         5        98            0.01          1000.0
         1         5        99            0.01          1000.0
         1         5       100            0.01          1000.0
         1         5       101            0.01          1000.0
         1         5       102            0.01          1000.0
         1         5       103            0.01          1000.0
         1         5       104            0.01          1000.0
         1         5       105            0.01          1000.0
         1         5       106            0.01          1000.0
         1         5       107            0.01          1000.0
         1         5       108            0.01          1000.0
         1         5       109            0.01          1000.0
         1         5       110            0.01          1000.0
         1         5       111            0.01          1000.0
         1         5       112            0.01          1000.0
         1         5       113            0.01          1000.0
         1         5       114            0.01          1000.0
         1         5       115            0.01          1000.0
         1         5       116            0.01          1000.0
         1         5       117            0.01          1000.0
         1         5       118            0.01          1000.0
         1         5       119            0.01          1000.0
         1         5       120            0.01          1000.0
         1         5       121            0.01          1000.0
         1         5       122            0.01          1000.0
         1         5       123            0.01          1000.0
         1         5       124            0.01          1000.0
         1         5       125            0.01          1000.0
         1         5       126            0.01          1000.0
         1         5       127            0.01          1000.0
         1         5       128            0.01          1000.0
         1         5       129            0.01          1000.0
         1         5       130            0.01          1000.0
         1         5       131            0.01          1000.0
         1         5       132            0.01          1000.0
         1         5       133            0.01          1000.0
         1         5       134            0.01          1000.0
         1         5       135            0.01          1000.0
         1         5       136            0.01          1000.0
         1         5       137            0.01          1000.0
         1         5       138            0.01          1000.0
         1         5       139            0.01          1000.0
         1         5       140            0.01          1000.0
         1         5       141            0.01          1000.0
         1         5       142            0.01          1000.0
         1         5       143            0.01          1000.0
         1         5       144            0.01          1000.0
         1         5       145            0.01          1000.0
         1         5       146            0.01          1000.0
         1         5       147            0.01          1000.0
         1         5       148            0.01          1000.0
         1         5       149            0.01          1000.0
         1         5       150            0.01          1000.0
         1         5       151            0.01          1000.0
         1         5       152            0.01          1000.0
         1         5       153            0.01          1000.0
         1         5       154            0.01          1000.0
         1         5       155            0.01          1000.0
         1         5       156            0.01          1000.0
         1         5       157            0.01          1000.0
         1         5       158            0.01          1000.0
         1         5       159            0.01          1000.0
         1         5       160            0.01          1000.0
         1         5       161            0.01          1000.0
         1         5       162            0.01          1000.0
         1         5       163            0.01          1000.0
         1         5       164            0.01          1000.0
         1         5       165            0.01          1000.0
         1         5       166            0.01          1000.0
         1         5       167            0.01          1000.0
         1         5       168            0.01          1000.0
         1         5       169            0.01          1000.0
         1         5       170            0.01          1000.0
         1         5       171            0.01          1000.0
         1         5       172            0.01          1000.0
         1         5       173            0.01          1000.0
         1         5       174            0.01          1000.0
         1         5       175            0.01          1000.0
         1         5       176            0.01          1000.0
         1         5       177            0.01          1000.0
         1         5       178            0.01          1000.0
         1         5       179            0.01          1000.0
         1         5       180            0.01          1000.0
         1         5       181            0.01          1000.0
         1         5       182            0.01          1000.0
         1         5       183            0.01          1000.0
         1         5       184            0.01          1000.0
         1         5       185            0.01          1000.0
         1         5       186            0.01          1000.0
         1         5       187            0.01          1000.0
         1         5       188            0.01          1000.0
         1         5       189            0.01          1000.0
         1         5       190            0.01          1000.0
         1         5       191            0.01          1000.0
         1         5       192            0.01          1000.0
         1         5       193            0.01          1000.0
         1         5       194            0.01          1000.0
         1         5       195            0.01          1000.0
         1         5       196            0.01          1000.0
         1         5       197            0.01          1000.0
         1         5       198            0.01          1000.0
         1         5       199            0.01          1000.0
         1         6        87            0.01          1000.0
         1         6        88            0.01          1000.0
         1         6        89            0.01          1000.0
         1         6        90            0.01          1000.0
         1         6        91            0.01          1000.0
         1         6        92            0.01          1000.0
         1         6        93            0.01          1000.0
         1         6        94            0.01          1000.0
         1         6        95            0.01          1000.0
         1         6        96            0.01          1000.0
         1         6        97            0.01          1000.0
         1         6        98            0.01          1000.0
         1         6        99            0.01          1000.0
         1         6       100            0.01          1000.0
         1         6       101            0.01          1000.0
         1         6       102            0.01          1000.0
         1         6       103            0.01          1000.0
         1         6       104            0.01          1000.0
         1         6       105            0.01          1000.0
         1         6       106            0.01          1000.0
         1         6       107            0.01          1000.0
         1         6       108            0.01          1000.0
         1         6       109            0.01          1000.0
         1         6       110            0.01          1000.0
         1         6       111            0.01          1000.0
         1         6       112            0.01          1000.0
         1         6       113            0.01          1000.0
         1         6       114            0.01          1000.0
         1         6       115            0.01          1000.0
         1         6       116            0.01          1000.0