# GHB package for  MODFLOW-2005, generated by Flopy.
      7876         0
      7876         0 # stress period 1
         1         2        90   1.0000000E+00   3.0000000E+01
         1         2        91   1.0000000E+00   3.0000000E+01
         1         2        92   1.0000000E+00   3.0000000E+01
         1         2        93   1.0000000E+00   3.0000000E+01
         1         2        94   1.0000000E+00   3.0000000E+01
         1         2        95   1.0000000E+00   3.0000000E+01
         1         2        96   1.0000000E+00   3.0000000E+01
         1         2        97   1.0000000E+00   3.0000000E+01
         1         2        98   1.0000000E+00   3.0000000E+01
         1         2        99   1.0000000E+00   3.0000000E+01
         1         2       100   1.0000000E+00   3.0000000E+01
         1         2       101   1.0000000E+00   3.0000000E+01
         1         2       102   1.0000000E+00   3.0000000E+01
         1         2       103   1.0000000E+00   3.0000000E+01
         1         2       104   1.0000000E+00   3.0000000E+01
         1         2       105   1.0000000E+00   3.0000000E+01
         1         2       106   1.0000000E+00   3.0000000E+01
         1         2       107   1.0000000E+00   3.0000000E+01
         1         2       108   1.0000000E+00   3.0000000E+01
         1         2       109   1.0000000E+00   3.0000000E+01
         1         2       110   1.0000000E+00   3.0000000E+01
         1         2       111   1.0000000E+00   3.0000000E+01
         1         2       112   1.0000000E+00   3.0000000E+01
         1         2       113   1.0000000E+00   3.0000000E+01
         1         2       114   1.0000000E+00   3.0000000E+01
         1         2       115   1.0000000E+00   3.0000000E+01
         1         2       116   1.0000000E+00   3.0000000E+01
         1         2       117   1.0000000E+00   3.0000000E+01
         1         2       118   1.0000000E+00   3.0000000E+01
         1         2       119   1.0000000E+00   3.0000000E+01
         1         2       120   1.0000000E+00   3.0000000E+01
         1         2       121   1.0000000E+00   3.0000000E+01
         1         2       122   1.0000000E+00   3.0000000E+01
         1         2       123   1.0000000E+00   3.0000000E+01
         1         2       124   1.0000000E+00   3.0000000E+01
         1         2       125   1.0000000E+00   3.0000000E+01
         1         2       126   1.0000000E+00   3.0000000E+01
         1         2       127   1.0000000E+00   3.0000000E+01
         1         2       128   1.0000000E+00   3.0000000E+01
         1         2       129   1.0000000E+00   3.0000000E+01
         1         2       130   1.0000000E+00   3.0000000E+01
         1         2       131   1.0000000E+00   3.0000000E+01
         1         2       132   1.0000000E+00   3.0000000E+01
         1         2       133   1.0000000E+00   3.0000000E+01
         1         2       134   1.0000000E+00   3.0000000E+01
         1         2       135   1.0000000E+00   3.0000000E+01
         1         2       136   1.0000000E+00   3.0000000E+01
         1         2       137   1.0000000E+00   3.0000000E+01
         1         2       138   1.0000000E+00   3.0000000E+01
         1         2       139   1.0000000E+00   3.0000000E+01
         1         2       140   1.0000000E+00   3.0000000E+01
         1         2       141   1.0000000E+00   3.0000000E+01
         1         2       142   1.0000000E+00   3.0000000E+01
         1         2       143   1.0000000E+00   3.0000000E+01
         1         2       144   1.0000000E+00   3.0000000E+01
         1         2       145   1.0000000E+00   3.0000000E+01
         1         2       146   1.0000000E+00   3.0000000E+01
         1         2       147   1.0000000E+00   3.0000000E+01
         1         2       148   1.0000000E+00   3.0000000E+01
         1         2       149   1.0000000E+00   3.0000000E+01
         1         2       150   1.0000000E+00   3.0000000E+01
         1         2       151   1.0000000E+00   3.0000000E+01
         1         2       152   1.0000000E+00   3.0000000E+01
         1         2       153   1.0000000E+00   3.0000000E+01
         1         2       154   1.0000000E+00   3.0000000E+01
         1         2       155   1.0000000E+00   3.0000000E+01
         1         2       156   1.0000000E+00   3.0000000E+01
         1         2       157   1.0000000E+00   3.0000000E+01
         1         2       158   1.0000000E+00   3.0000000E+01
         1         2       159   1.0000000E+00   3.0000000E+01
         1         2       160   1.0000000E+00   3.0000000E+01
         1         2       161   1.0000000E+00   3.0000000E+01
         1         2       162   1.0000000E+00   3.0000000E+01
         1         2       163   1.0000000E+00   3.0000000E+01
         1         2       164   1.0000000E+00   3.0000000E+01
         1         2       165   1.0000000E+00   3.0000000E+01
         1         2       166   1.0000000E+00   3.0000000E+01
         1         2       167   1.0000000E+00   3.0000000E+01
         1         2       168   1.0000000E+00   3.0000000E+01
         1         2       169   1.0000000E+00   3.0000000E+01
         1         2       170   1.0000000E+00   3.0000000E+01
         1         2       171   1.0000000E+00   3.0000000E+01
         1         2       172   1.0000000E+00   3.0000000E+01
         1         2       173   1.0000000E+00   3.0000000E+01
         1         2       174   1.0000000E+00   3.0000000E+01
         1         2       175   1.0000000E+00   3.0000000E+01
         1         2       176   1.0000000E+00   3.0000000E+01
         1         2       177   1.0000000E+00   3.0000000E+01
         1         2       178   1.0000000E+00   3.0000000E+01
         1         2       179   1.0000000E+00   3.0000000E+01
         1         2       180   1.0000000E+00   3.0000000E+01
         1         2       181   1.0000000E+00   3.0000000E+01
         1         2       182   1.0000000E+00   3.0000000E+01
         1         2       183   1.0000000E+00   3.0000000E+01
         1         2       184   1.0000000E+00   3.0000000E+01
         1         2       185   1.0000000E+00   3.0000000E+01
         1         2       186   1.0000000E+00   3.0000000E+01
         1         2       187   1.0000000E+00   3.0000000E+01
         1         2       188   1.0000000E+00   3.0000000E+01
         1         2       189   1.0000000E+00   3.0000000E+01
         1         2       190   1.0000000E+00   3.0000000E+01
         1         2       191   1.0000000E+00   3.0000000E+01
         1         2       192   1.0000000E+00   3.0000000E+01
         1         2       193   1.0000000E+00   3.0000000E+01
         1         2       194   1.0000000E+00   3.0000000E+01
         1         2       195   1.0000000E+00   3.0000000E+01
         1         2       196   1.0000000E+00   3.0000000E+01
         1         2       197   1.0000000E+00   3.0000000E+01
         1         2       198   1.0000000E+00   3.0000000E+01
         1         2       199   1.0000000E+00   3.0000000E+01
         1         3        89   1.0000000E+00   3.0000000E+01
         1         3        90   1.0000000E+00   3.0000000E+01
         1         3        91   1.0000000E+00   3.0000000E+01
         1         3        92   1.0000000E+00   3.0000000E+01
         1         3        93   1.0000000E+00   3.0000000E+01
         1         3        94   1.0000000E+00   3.0000000E+01
         1         3        95   1.0000000E+00   3.0000000E+01
         1         3        96   1.0000000E+00   3.0000000E+01
         1         3        97   1.0000000E+00   3.0000000E+01
         1         3        98   1.0000000E+00   3.0000000E+01
         1         3        99   1.0000000E+00   3.0000000E+01
         1         3       100   1.0000000E+00   3.0000000E+01
         1         3       101   1.0000000E+00   3.0000000E+01
         1         3       102   1.0000000E+00   3.0000000E+01
         1         3       103   1.0000000E+00   3.0000000E+01
         1         3       104   1.0000000E+00   3.0000000E+01
         1         3       105   1.0000000E+00   3.0000000E+01
         1         3       106   1.0000000E+00   3.0000000E+01
         1         3       107   1.0000000E+00   3.0000000E+01
         1         3       108   1.0000000E+00   3.0000000E+01
         1         3       109   1.0000000E+00   3.0000000E+01
         1         3       110   1.0000000E+00   3.0000000E+01
         1         3       111   1.0000000E+00   3.0000000E+01
         1         3       112   1.0000000E+00   3.0000000E+01
         1         3       113   1.0000000E+00   3.0000000E+01
         1         3       114   1.0000000E+00   3.0000000E+01
         1         3       115   1.0000000E+00   3.0000000E+01
         1         3       116   1.0000000E+00   3.0000000E+01
         1         3       117   1.0000000E+00   3.0000000E+01
         1         3       118   1.0000000E+00   3.0000000E+01
         1         3       119   1.0000000E+00   3.0000000E+01
         1         3       120   1.0000000E+00   3.0000000E+01
         1         3       121   1.0000000E+00   3.0000000E+01
         1         3       122   1.0000000E+00   3.0000000E+01
         1         3       123   1.0000000E+00   3.0000000E+01
         1         3       124   1.0000000E+00   3.0000000E+01
         1         3       125   1.0000000E+00   3.0000000E+01
         1         3       126   1.0000000E+00   3.0000000E+01
         1         3       127   1.0000000E+00   3.0000000E+01
         1         3       128   1.0000000E+00   3.0000000E+01
         1         3       129   1.0000000E+00   3.0000000E+01
         1         3       130   1.0000000E+00   3.0000000E+01
         1         3       131   1.0000000E+00   3.0000000E+01
         1         3       132   1.0000000E+00   3.0000000E+01
         1         3       133   1.0000000E+00   3.0000000E+01
         1         3       134   1.0000000E+00   3.0000000E+01
         1         3       135   1.0000000E+00   3.0000000E+01
         1         3       136   1.0000000E+00   3.0000000E+01
         1         3       137   1.0000000E+00   3.0000000E+01
         1         3       138   1.0000000E+00   3.0000000E+01
         1         3       139   1.0000000E+00   3.0000000E+01
         1         3       140   1.0000000E+00   3.0000000E+01
         1         3       141   1.0000000E+00   3.0000000E+01
         1         3       142   1.0000000E+00   3.0000000E+01
         1         3       143   1.0000000E+00   3.0000000E+01
         1         3       144   1.0000000E+00   3.0000000E+01
         1         3       145   1.0000000E+00   3.0000000E+01
         1         3       146   1.0000000E+00   3.0000000E+01
         1         3       147   1.0000000E+00   3.0000000E+01
         1         3       148   1.0000000E+00   3.0000000E+01
         1         3       149   1.0000000E+00   3.0000000E+01
         1         3       150   1.0000000E+00   3.0000000E+01
         1         3       151   1.0000000E+00   3.0000000E+01
         1         3       152   1.0000000E+00   3.0000000E+01
         1         3       153   1.0000000E+00   3.0000000E+01
         1         3       154   1.0000000E+00   3.0000000E+01
         1         3       155   1.0000000E+00   3.0000000E+01
         1         3       156   1.0000000E+00   3.0000000E+01
         1         3       157   1.0000000E+00   3.0000000E+01
         1         3       158   1.0000000E+00   3.0000000E+01
         1         3       159   1.0000000E+00   3.0000000E+01
         1         3       160   1.0000000E+00   3.0000000E+01
         1         3       161   1.0000000E+00   3.0000000E+01
         1         3       162   1.0000000E+00   3.0000000E+01
         1         3       163   1.0000000E+00   3.0000000E+01
         1         3       164   1.0000000E+00   3.0000000E+01
         1         3       165   1.0000000E+00   3.0000000E+01
         1         3       166   1.0000000E+00   3.0000000E+01
         1         3       167   1.0000000E+00   3.0000000E+01
         1         3       168   1.0000000E+00   3.0000000E+01
         1         3       169   1.0000000E+00   3.0000000E+01
         1         3       170   1.0000000E+00   3.0000000E+01
         1         3       171   1.0000000E+00   3.0000000E+01
         1         3       172   1.0000000E+00   3.0000000E+01
         1         3       173   1.0000000E+00   3.0000000E+01
         1         3       174   1.0000000E+00   3.0000000E+01
         1         3       175   1.0000000E+00   3.0000000E+01
         1         3       176   1.0000000E+00   3.0000000E+01
         1         3       177   1.0000000E+00   3.0000000E+01
         1         3       178   1.0000000E+00   3.0000000E+01
         1         3       179   1.0000000E+00   3.0000000E+01
         1         3       180   1.0000000E+00   3.0000000E+01
         1         3       181   1.0000000E+00   3.0000000E+01
         1         3       182   1.0000000E+00   3.0000000E+01
         1         3       183   1.0000000E+00   3.0000000E+01
         1         3       184   1.0000000E+00   3.0000000E+01
         1         3       185   1.0000000E+00   3.0000000E+01
         1         3       186   1.0000000E+00   3.0000000E+01
         1         3       187   1.0000000E+00   3.0000000E+01
         1         3       188   1.0000000E+00   3.0000000E+01
         1         3       189   1.0000000E+00   3.0000000E+01
         1         3       190   1.0000000E+00   3.0000000E+01
         1         3       191   1.0000000E+00   3.0000000E+01
         1         3       192   1.0000000E+00   3.0000000E+01
         1         3       193   1.0000000E+00   3.0000000E+01
         1         3       194   1.0000000E+00   3.0000000E+01
         1         3       195   1.0000000E+00   3.0000000E+01
         1         3       196   1.0000000E+00   3.0000000E+01
         1         3       197   1.0000000E+00   3.0000000E+01
         1         3       198   1.0000000E+00   3.0000000E+01
         1         3       199   1.0000000E+00   3.0000000E+01
         1         4        89   1.0000000E+00   3.0000000E+01
         1         4        90   1.0000000E+00   3.0000000E+01
         1         4        91   1.0000000E+00   3.0000000E+01
         1         4        92   1.0000000E+00   3.0000000E+01
         1         4        93   1.0000000E+00   3.0000000E+01
         1         4        94   1.0000000E+00   3.0000000E+01
         1         4        95   1.0000000E+00   3.0000000E+01
         1         4        96   1.0000000E+00   3.0000000E+01
         1         4        97   1.0000000E+00   3.0000000E+01
         1         4        98   1.0000000E+00   3.0000000E+01
         1         4        99   1.0000000E+00   3.0000000E+01
         1         4       100   1.0000000E+00   3.0000000E+01
         1         4       101   1.0000000E+00   3.0000000E+01
         1         4       102   1.0000000E+00   3.0000000E+01
         1         4       103   1.0000000E+00   3.0000000E+01
         1         4       104   1.0000000E+00   3.0000000E+01
         1         4       105   1.0000000E+00   3.0000000E+01
         1         4       106   1.0000000E+00   3.0000000E+01
         1         4       107   1.0000000E+00   3.0000000E+01
         1         4       108   1.0000000E+00   3.0000000E+01
         1         4       109   1.0000000E+00   3.0000000E+01
         1         4       110   1.0000000E+00   3.0000000E+01
         1         4       111   1.0000000E+00   3.0000000E+01
         1         4       112   1.0000000E+00   3.0000000E+01
         1         4       113   1.0000000E+00   3.0000000E+01
         1         4       114   1.0000000E+00   3.0000000E+01
         1         4       115   1.0000000E+00   3.0000000E+01
         1         4       116   1.0000000E+00   3.0000000E+01
         1         4       117   1.0000000E+00   3.0000000E+01
         1         4       118   1.0000000E+00   3.0000000E+01
         1         4       119   1.0000000E+00   3.0000000E+01
         1         4       120   1.0000000E+00   3.0000000E+01
         1         4       121   1.0000000E+00   3.0000000E+01
         1         4       122   1.0000000E+00   3.0000000E+01
         1         4       123   1.0000000E+00   3.0000000E+01
         1         4       124   1.0000000E+00   3.0000000E+01
         1         4       125   1.0000000E+00   3.0000000E+01
         1         4       126   1.0000000E+00   3.0000000E+01
         1         4       127   1.0000000E+00   3.0000000E+01
         1         4       128   1.0000000E+00   3.0000000E+01
         1         4       129   1.0000000E+00   3.0000000E+01
         1         4       130   1.0000000E+00   3.0000000E+01
         1         4       131   1.0000000E+00   3.0000000E+01
         1         4       132   1.0000000E+00   3.0000000E+01
         1         4       133   1.0000000E+00   3.0000000E+01
         1         4       134   1.0000000E+00   3.0000000E+01
         1         4       135   1.0000000E+00   3.0000000E+01
         1         4       136   1.0000000E+00   3.0000000E+01
         1         4       137   1.0000000E+00   3.0000000E+01
         1         4       138   1.0000000E+00   3.0000000E+01
         1         4       139   1.0000000E+00   3.0000000E+01
         1         4       140   1.0000000E+00   3.0000000E+01
         1         4       141   1.0000000E+00   3.0000000E+01
         1         4       142   1.0000000E+00   3.0000000E+01
         1         4       143   1.0000000E+00   3.0000000E+01
         1         4       144   1.0000000E+00   3.0000000E+01
         1         4       145   1.0000000E+00   3.0000000E+01
         1         4       146   1.0000000E+00   3.0000000E+01
         1         4       147   1.0000000E+00   3.0000000E+01
         1         4       148   1.0000000E+00   3.0000000E+01
         1         4       149   1.0000000E+00   3.0000000E+01
         1         4       150   1.0000000E+00   3.0000000E+01
         1         4       151   1.0000000E+00   3.0000000E+01
         1         4       152   1.0000000E+00   3.0000000E+01
         1         4       153   1.0000000E+00   3.0000000E+01
         1         4       154   1.0000000E+00   3.0000000E+01
         1         4       155   1.0000000E+00   3.0000000E+01
         1         4       156   1.0000000E+00   3.0000000E+01
         1         4       157   1.0000000E+00   3.0000000E+01
         1         4       158   1.0000000E+00   3.0000000E+01
         1         4       159   1.0000000E+00   3.0000000E+01
         1         4       160   1.0000000E+00   3.0000000E+01
         1         4       161   1.0000000E+00   3.0000000E+01
         1         4       162   1.0000000E+00   3.0000000E+01
         1         4       163   1.0000000E+00   3.0000000E+01
         1         4       164   1.0000000E+00   3.0000000E+01
         1         4       165   1.0000000E+00   3.0000000E+01
         1         4       166   1.0000000E+00   3.0000000E+01
         1         4       167   1.0000000E+00   3.0000000E+01
         1         4       168   1.0000000E+00   3.0000000E+01
         1         4       169   1.0000000E+00   3.0000000E+01
         1         4       170   1.0000000E+00   3.0000000E+01
         1         4       171   1.0000000E+00   3.0000000E+01
         1         4       172   1.0000000E+00   3.0000000E+01
         1         4       173   1.0000000E+00   3.0000000E+01
         1         4       174   1.0000000E+00   3.0000000E+01
         1         4       175   1.0000000E+00   3.0000000E+01
         1         4       176   1.0000000E+00   3.0000000E+01
         1         4       177   1.0000000E+00   3.0000000E+01
         1         4       178   1.0000000E+00   3.0000000E+01
         1         4       179   1.0000000E+00   3.0000000E+01
         1         4       180   1.0000000E+00   3.0000000E+01
         1         4       181   1.0000000E+00   3.0000000E+01
         1         4       182   1.0000000E+00   3.0000000E+01
         1         4       183   1.0000000E+00   3.0000000E+01
         1         4       184   1.0000000E+00   3.0000000E+01
         1         4       185   1.0000000E+00   3.0000000E+01
         1         4       186   1.0000000E+00   3.0000000E+01
         1         4       187   1.0000000E+00   3.0000000E+01
         1         4       188   1.0000000E+00   3.0000000E+01
         1         4       189   1.0000000E+00   3.0000000E+01
         1         4       190   1.0000000E+00   3.0000000E+01
         1         4       191   1.0000000E+00   3.0000000E+01
         1         4       192   1.0000000E+00   3.0000000E+01
         1         4       193   1.0000000E+00   3.0000000E+01
         1         4       194   1.0000000E+00   3.0000000E+01
         1         4       195   1.0000000E+00   3.0000000E+01
         1         4       196   1.0000000E+00   3.0000000E+01
         1         4       197   1.0000000E+00   3.0000000E+01
         1         4       198   1.0000000E+00   3.0000000E+01
         1         4       199   1.0000000E+00   3.0000000E+01
         1         5        88   1.0000000E+00   3.0000000E+01
         1         5        89   1.0000000E+00   3.0000000E+01
         1         5        90   1.0000000E+00   3.0000000E+01
         1         5        91   1.0000000E+00   3.0000000E+01
         1         5        92   1.0000000E+00   3.0000000E+01
         1         5        93   1.0000000E+00   3.0000000E+01
         1         5        94   1.0000000E+00   3.0000000E+01
         1         5        95   1.0000000E+00   3.0000000E+01
         1         5        96   1.0000000E+00   3.0000000E+01
         1         5        97   1.0000000E+00   3.0000000E+01
         1         5        98   1.0000000E+00   3.0000000E+01
         1         5        99   1.0000000E+00   3.0000000E+01
         1         5       100   1.0000000E+00   3.0000000E+01
         1         5       101   1.0000000E+00   3.0000000E+01
         1         5       102   1.0000000E+00   3.0000000E+01
         1         5       103   1.0000000E+00   3.0000000E+01
         1         5       104   1.0000000E+00   3.0000000E+01
         1         5       105   1.0000000E+00   3.0000000E+01
         1         5       106   1.0000000E+00   3.0000000E+01
         1         5       107   1.0000000E+00   3.0000000E+01
         1         5       108   1.0000000E+00   3.0000000E+01
         1         5       109   1.0000000E+00   3.0000000E+01
         1         5       110   1.0000000E+00   3.0000000E+01
         1         5       111   1.0000000E+00   3.0000000E+01
         1         5       112   1.0000000E+00   3.0000000E+01
         1         5       113   1.0000000E+00   3.0000000E+01
         1         5       114   1.0000000E+00   3.0000000E+01
         1         5       115   1.0000000E+00   3.0000000E+01
         1         5       116   1.0000000E+00   3.0000000E+01
         1         5       117   1.0000000E+00   3.0000000E+01
         1         5       118   1.0000000E+00   3.0000000E+01
         1         5       119   1.0000000E+00   3.0000000E+01
         1         5       120   1.0000000E+00   3.0000000E+01
         1         5       121   1.0000000E+00   3.0000000E+01
         1         5       122   1.0000000E+00   3.0000000E+01
         1         5       123   1.0000000E+00   3.0000000E+01
         1         5       124   1.0000000E+00   3.0000000E+01
         1         5       125   1.0000000E+00   3.0000000E+01
         1         5       126   1.0000000E+00   3.0000000E+01
         1         5       127   1.0000000E+00   3.0000000E+01
         1         5       128   1.0000000E+00   3.0000000E+01
         1         5       129   1.0000000E+00   3.0000000E+01
         1         5       130   1.0000000E+00   3.0000000E+01
         1         5       131   1.0000000E+00   3.0000000E+01
         1         5       132   1.0000000E+00   3.0000000E+01
         1         5       133   1.0000000E+00   3.0000000E+01
         1         5       134   1.0000000E+00   3.0000000E+01
         1         5       135   1.0000000E+00   3.0000000E+01
         1         5       136   1.0000000E+00   3.0000000E+01
         1         5       137   1.0000000E+00   3.0000000E+01
         1         5       138   1.0000000E+00   3.0000000E+01
         1         5       139   1.0000000E+00   3.0000000E+01
         1         5       140   1.0000000E+00   3.0000000E+01
         1         5       141   1.0000000E+00   3.0000000E+01
         1         5       142   1.0000000E+00   3.0000000E+01
         1         5       143   1.0000000E+00   3.0000000E+01
         1         5       144   1.0000000E+00   3.0000000E+01
         1         5       145   1.0000000E+00   3.0000000E+01
         1         5       146   1.0000000E+00   3.0000000E+01
         1         5       147   1.0000000E+00   3.0000000E+01
         1         5       148   1.0000000E+00   3.0000000E+01
         1         5       149   1.0000000E+00   3.0000000E+01
         1         5       150   1.0000000E+00   3.0000000E+01
         1         5       151   1.0000000E+00   3.0000000E+01
         1         5       152   1.0000000E+00   3.0000000E+01
         1         5       153   1.0000000E+00   3.0000000E+01
         1         5       154   1.0000000E+00   3.0000000E+01
         1         5       155   1.0000000E+00   3.0000000E+01
         1         5       156   1.0000000E+00   3.0000000E+01
         1         5       157   1.0000000E+00   3.0000000E+01
         1         5       158   1.0000000E+00   3.0000000E+01
         1         5       159   1.0000000E+00   3.0000000E+01
         1         5       160   1.0000000E+00   3.0000000E+01
         1         5       161   1.0000000E+00   3.0000000E+01
         1         5       162   1.0000000E+00   3.0000000E+01
         1         5       163   1.0000000E+00   3.0000000E+01
         1         5       164   1.0000000E+00   3.0000000E+01
         1         5       165   1.0000000E+00   3.0000000E+01
         1         5       166   1.0000000E+00   3.0000000E+01
         1         5       167   1.0000000E+00   3.0000000E+01
         1         5       168   1.0000000E+00   3.0000000E+01
         1         5       169   1.0000000E+00   3.0000000E+01
         1         5       170   1.0000000E+00   3.0000000E+01
         1         5       171   1.0000000E+00   3.0000000E+01
         1         5       172   1.0000000E+00   3.0000000E+01
         1         5       173   1.0000000E+00   3.0000000E+01
         1         5       174   1.0000000E+00   3.0000000E+01
         1         5       175   1.0000000E+00   3.0000000E+01
         1         5       176   1.0000000E+00   3.0000000E+01
         1         5       177   1.0000000E+00   3.0000000E+01
         1         5       178   1.0000000E+00   3.0000000E+01
         1         5       179   1.0000000E+00   3.0000000E+01
         1         5       180   1.0000000E+00   3.0000000E+01
         1         5       181   1.0000000E+00   3.0000000E+01
         1         5       182   1.0000000E+00   3.0000000E+01
         1         5       183   1.0000000E+00   3.0000000E+01
         1         5       184   1.0000000E+00   3.0000000E+01
         1         5       185   1.0000000E+00   3.0000000E+01
         1         5       186   1.0000000E+00   3.0000000E+01
         1         5       187   1.0000000E+00   3.0000000E+01
         1         5       188   1.0000000E+00   3.0000000E+01
         1         5       189   1.0000000E+00   3.0000000E+01
         1         5       190   1.0000000E+00   3.0000000E+01
         1         5       191   1.0000000E+00   3.0000000E+01
         1         5       192   1.0000000E+00   3.0000000E+01
         1         5       193   1.0000000E+00   3.0000000E+01
         1         5       194   1.0000000E+00   3.0000000E+01
         1         5       195   1.0000000E+00   3.0000000E+01
         1         5       196   1.0000000E+00   3.0000000E+01
         1         5       197   1.0000000E+00   3.0000000E+01
         1         5       198   1.0000000E+00   3.0000000E+01
         1         5       199   1.0000000E+00   3.0000000E+01
         1         6        87   1.0000000E+00   3.0000000E+01
         1         6        88   1.0000000E+00   3.0000000E+01
         1         6        89   1.0000000E+00   3.0000000E+01
         1         6        90   1.0000000E+00   3.0000000E+01
         1         6        91   1.0000000E+00   3.0000000E+01
         1         6        92   1.0000000E+00   3.0000000E+01
         1         6        93   1.0000000E+00   3.0000000E+01
         1         6        94   1.0000000E+00   3.0000000E+01
         1         6        95   1.0000000E+00   3.0000000E+01
         1         6        96   1.0000000E+00   3.0000000E+01
         1         6        97   1.0000000E+00   3.0000000E+01
         1         6        98   1.0000000E+00   3.0000000E+01
         1         6        99   1.0000000E+00   3.0000000E+01
         1         6       100   1.0000000E+00   3.0000000E+01
         1         6       101   1.0000000E+00   3.0000000E+01
         1         6       102   1.0000000E+00   3.0000000E+01
         1         6       103   1.0000000E+00   3.0000000E+01
         1         6       104   1.0000000E+00   3.0000000E+01
         1         6       105   1.0000000E+00   3.0000000E+01
         1         6       106   1.0000000E+00   3.0000000E+01
         1         6       107   1.0000000E+00   3.0000000E+01
         1         6       108   1.0000000E+00   3.0000000E+01
         1         6       109   1.0000000E+00   3.0000000E+01
         1         6       110   1.0000000E+00   3.0000000E+01
         1         6       111   1.0000000E+00   3.0000000E+01
         1         6       112   1.0000000E+00   3.0000000E+01
         1         6       113   1.0000000E+00   3.0000000E+01
         1         6       114   1.0000000E+00   3.0000000E+01
         1         6       115   1.0000000E+00   3.0000000E+01
         1         6       116   1.0000000E+00   3.0000000E+01