# RCH package for  MODFLOW-2005, generated by Flopy.
         3         0
         1        -1 # Stress period 1
INTERNAL               1 (200E15.6) -1 #rech_1                        
  -0.000000E+00   0.000000E+00   0.000000E+00   0.000000E+00   0.000000E+00  -0.000000E+00  -0.000000E+00  -0.000000E+00  -0.000000E+00   0.000000E+00   0.000000E+00   0.000000E+00   0.000000E+00  -0.000000E+00  -0.000000E+00  -0.000000E+00  -0.000000E+00  -0.000000E+00   0.000000E+00   0.000000E+00   0.000000E+00  -0.000000E+00  -0.000000E+00   0.000000E+00  -0.000000E+00  -0.000000E+00   0.000000E+00   0.000000E+00   0.000000E+00   0.000000E+00  -0.000000E+00   0.000000E+00   0.000000E+00   0.000000E+00  -0.000000E+00  -0.000000E+00   0.000000E+00   0.000000E+00   0.000000E+00   0.000000E+00   0.000000E+00  -0.000000E+00  -0.000000E+00   0.000000E+00   0.000000E+00  -0.000000E+00  -0.000000E+00  -0.000000E+00   0.000000E+00   0.000000E+00  -0.000000E+00  -0.000000E+00   0.000000E+00  -0.000000E+00   0.000000E+00   0.000000E+00   0.000000E+00  -0.000000E+00   0.000000E+00  -0.000000E+00   0.000000E+00   0.000000E+00   0.000000E+00   0.000000E+00   0.000000E+00  -0.000000E+00  -0.000000E+00   0.000000E+00  -0.000000E+00   0.000000E+00   0.000000E+00   0.000000E+00   0.000000E+00  -0.000000E+00  -0.000000E+00   0.000000E+00  -0.000000E+00   0.000000E+00   0.000000E+00  -0.000000E+00  -0.000000E+00  -0.000000E+00   0.000000E+00   0.000000E+00  -0.000000E+00  -0.000000E+00  -0.000000E+00  -0.000000E+00   0.000000E+00   0.000000E+00   0.000000E+00  -0.000000E+00  -0.000000E+00   0.000000E+00   0.000000E+00  -0.000000E+00  -0.000000E+00   0.000000E+00  -1.401298E-45  -0.000000E+00   2.802597E-45  -1.821688E-44  -1.975831E-43   6.025583E-44   8.113518E-43   1.258226E-41  -3.171559E-41  -2.500197E-41  -2.648034E-41   8.608569E-40  -1.014251E-39   3.118085E-40   1.439386E-40  -2.349636E-38   1.077935E-37  -7.583782E-37   1.850867E-36  -1.340432E-37  -4.793514E-39  -1.919559E-39   4.081282E-41  -4.765816E-42   1.026171E-40  -3.113265E-41  -3.587324E-43  -7.567012E-44   1.331234E-43  -3.605541E-42   2.101948E-44  -5.605194E-45  -8.407791E-45  -9.248570E-44   3.279038E-43   2.073922E-43  -2.270104E-43  -5.938703E-42  -1.513402E-43   5.577168E-43  -2.298129E-42   7.066748E-42  -5.465064E-44  -1.359260E-43  -8.169570E-43  -2.284116E-43  -1.569454E-43   4.203895E-45   1.401298E-45   0.000000E+00   0.000000E+00  -0.000000E+00   0.000000E+00  -1.401298E-44   0.000000E+00   0.000000E+00   0.000000E+00  -0.000000E+00  -0.000000E+00  -0.000000E+00   0.000000E+00   0.000000E+00  -0.000000E+00  -0.000000E+00   0.000000E+00   0.000000E+00  -0.000000E+00   0.000000E+00  -0.000000E+00  -0.000000E+00  -1.401298E-45  -5.605194E-45   1.821688E-44  -2.059909E-43  -2.642849E-42  -6.171318E-42   7.781130E-41  -3.693823E-42   6.416546E-42   7.729562E-42  -6.249791E-43   2.471890E-42   4.287973E-43   2.729729E-42  -6.726233E-43   6.445973E-44   1.401298E-44   1.401298E-45   0.000000E+00  -0.000000E+00  -0.000000E+00  -0.000000E+00  -0.000000E+00   0.000000E+00   0.000000E+00   0.000000E+00   0.000000E+00   0.000000E+00  -0.000000E+00  -0.000000E+00  -0.000000E+00   0.000000E+00
  -0.000000E+00  -0.000000E+00  -0.000000E+00  -0.000000E+00  -0.000000E+00   0.000000E+00   0.000000E+00   0.000000E+00   0.000000E+00  -0.000000E+00  -0.000000E+00  -0.000000E+00  -0.000000E+00   0.000000E+00   0.000000E+00   0.000000E+00   0.000000E+00   0.000000E+00  -0.000000E+00  -0.000000E+00  -0.000000E+00  -0.000000E+00   0.000000E+00  -0.000000E+00   0.000000E+00   0.000000E+00  -0.000000E+00  -0.000000E+00  -0.000000E+00   0.000000E+00   0.000000E+00   0.000000E+00  -0.000000E+00  -0.000000E+00   0.000000E+00   0.000000E+00  -0.000000E+00  -0.000000E+00  -0.000000E+00  -0.000000E+00  -0.000000E+00   0.000000E+00   0.000000E+00  -0.000000E+00  -0.000000E+00   0.000000E+00   0.000000E+00   0.000000E+00  -0.000000E+00  -0.000000E+00   0.000000E+00   0.000000E+00  -0.000000E+00   0.000000E+00  -0.000000E+00  -0.000000E+00  -0.000000E+00   0.000000E+00  -0.000000E+00   0.000000E+00  -0.000000E+00  -0.000000E+00  -0.000000E+00  -0.000000E+00  -0.000000E+00   0.000000E+00   0.000000E+00  -0.000000E+00   0.000000E+00  -0.000000E+00  -0.000000E+00  -0.000000E+00  -0.000000E+00  -0.000000E+00  -0.000000E+00  -0.000000E+00   0.000000E+00   0.000000E+00   0.000000E+00   0.000000E+00  -0.000000E+00  -1.401298E-45  -5.605194E-45   5.605194E-45   6.053609E-43   8.937482E-42   4.499429E-41   5.529944E-41  -5.002952E-39  -5.937453E-38  -4.842182E-37   7.757854E-36   1.138936E-35  -3.272134E-35   3.362277E-35   1.028726E-34  -1.691241E-33  -3.427089E-32   4.815120E-31   1.727182E-31  -1.326334E-30   3.030386E-30   6.501493E-29  -3.356397E-29   2.524951E-29  -4.859191E-27   1.383525E-26   1.181283E-26  -1.013957E-26  -4.978539E-25   2.562018E-25  -4.653532E-25   1.781573E-24   2.762984E-23  -6.590010E-23   4.428459E-22  -1.003467E-21   6.303036E-23   9.211177E-24   7.291365E-25   1.204197E-26  -1.648172E-27  -4.248160E-26   1.100797E-26   3.580949E-28  -8.601484E-30  -8.825166E-29   1.387075E-27  -2.309399E-29   2.390536E-30   3.465366E-30   3.227888E-29  -1.091244E-28  -6.576989E-29   1.656281E-28   2.173405E-27   1.501134E-28  -2.264847E-28   9.453147E-28  -2.861771E-27   2.844919E-29   5.174401E-29   3.820209E-28   8.428062E-29   5.015637E-29   5.525130E-31  -4.491904E-31  -3.573839E-32  -3.529349E-32   2.082991E-31  -9.097199E-33   4.362055E-30  -6.451237E-32  -6.306004E-32  -5.399894E-32   2.684941E-32   7.740959E-33   2.657529E-32  -4.896921E-32  -7.683830E-32   3.396398E-32   1.997269E-32  -4.568243E-33  -1.157376E-33   8.201893E-34  -8.413053E-34   1.006447E-33   5.963354E-32   8.194860E-31   3.876842E-30  -1.100068E-29   4.194689E-30   6.634433E-28   2.141093E-27  -2.855182E-26   3.751437E-28  -2.248647E-27  -3.015881E-27   2.845122E-28  -7.244508E-28  -1.774144E-28  -9.768894E-28   1.517493E-28  -2.177173E-29  -4.505152E-30  -4.255719E-31  -1.897827E-32   1.568769E-33   4.085350E-34   4.198858E-35   2.208497E-36  -9.975121E-38  -3.647003E-38  -4.092275E-39  -2.454528E-40   4.719573E-42   3.197763E-42   4.007714E-43   7.987401E-44   0.000000E+00
  -0.000000E+00  -0.000000E+00  -0.000000E+00  -0.000000E+00  -0.000000E+00   0.000000E+00   0.000000E+00   0.000000E+00   0.000000E+00  -0.000000E+00  -0.000000E+00  -0.000000E+00  -0.000000E+00   0.000000E+00   0.000000E+00   0.000000E+00   0.000000E+00   0.000000E+00  -0.000000E+00  -0.000000E+00  -0.000000E+00  -0.000000E+00   0.000000E+00  -0.000000E+00   0.000000E+00   0.000000E+00  -0.000000E+00  -0.000000E+00  -0.000000E+00   0.000000E+00   0.000000E+00   0.000000E+00  -0.000000E+00  -0.000000E+00   0.000000E+00   0.000000E+00  -0.000000E+00  -0.000000E+00  -0.000000E+00  -0.000000E+00  -0.000000E+00   0.000000E+00   0.000000E+00  -0.000000E+00  -0.000000E+00   0.000000E+00   0.000000E+00   0.000000E+00  -0.000000E+00  -0.000000E+00   0.000000E+00   0.000000E+00  -0.000000E+00   0.000000E+00  -0.000000E+00  -0.000000E+00  -0.000000E+00   0.000000E+00  -0.000000E+00   0.000000E+00  -0.000000E+00  -0.000000E+00  -0.000000E+00  -0.000000E+00  -0.000000E+00   0.000000E+00   0.000000E+00  -0.000000E+00   0.000000E+00  -0.000000E+00  -0.000000E+00  -0.000000E+00  -0.000000E+00  -0.000000E+00  -0.000000E+00  -0.000000E+00   0.000000E+00   0.000000E+00   0.000000E+00   0.000000E+00  -1.401298E-45  -2.101948E-44  -1.485376E-43   1.457350E-43   1.627468E-41   2.405469E-40   1.210981E-39   1.488329E-39  -1.346502E-37  -1.598015E-36  -1.303232E-35   2.087961E-34   3.065349E-34  -8.806672E-34   9.049285E-34   2.768730E-33  -4.551832E-32  -9.223721E-31   1.295949E-29   4.648564E-30  -3.569717E-29   8.156029E-29   1.749822E-27  -9.033460E-28   6.795692E-28  -1.307810E-25   3.723641E-25   3.179324E-25  -2.728979E-25  -1.339932E-23   6.895456E-24  -1.252459E-23   4.794953E-23   7.436338E-22  -1.773645E-21   1.191882E-20  -2.700747E-20   1.696409E-21   2.479111E-22   1.962409E-23   3.240996E-25  -4.435915E-26  -1.143356E-24   2.962702E-25   9.637822E-27  -2.315017E-28  -2.375219E-27   3.733196E-26  -6.215551E-28   6.433926E-29   9.326741E-29   8.687588E-28  -2.936990E-27  -1.770141E-27   4.457741E-27   5.849536E-26   4.040176E-27  -6.095646E-27   2.544235E-26  -7.702214E-26   7.656860E-28   1.392646E-27   1.028177E-26   2.268342E-27   1.349916E-27   1.487042E-29  -1.208958E-29  -9.618685E-31  -9.498946E-31   5.606194E-30  -2.448434E-31   1.174010E-28  -1.736296E-30  -1.697208E-30  -1.453336E-30   7.226292E-31   2.083414E-31   7.152514E-31  -1.317965E-30  -2.068038E-30   9.141119E-31   5.375480E-31  -1.229504E-31  -3.114980E-32   2.207470E-32  -2.264302E-32   2.708767E-32   1.604986E-30   2.205577E-29   1.043419E-28  -2.960739E-28   1.128965E-28   1.785602E-26   5.762572E-26  -7.684482E-25   1.009667E-26  -6.052044E-26  -8.116987E-26   7.657407E-27  -1.949798E-26  -4.774960E-27  -2.629215E-26   4.084205E-27  -5.859677E-28  -1.212524E-28  -1.145391E-29  -5.107841E-31   4.222210E-32   1.099538E-32   1.130087E-33   5.943984E-35  -2.684719E-36  -9.815601E-37  -1.101401E-37  -6.606158E-39   1.270179E-40   8.606355E-41   1.080541E-41   2.142585E-42   0.000000E+00
  -0.000000E+00  -0.000000E+00  -0.000000E+00  -0.000000E+00  -0.000000E+00   0.000000E+00   0.000000E+00   0.000000E+00   0.000000E+00  -0.000000E+00  -0.000000E+00  -0.000000E+00  -0.000000E+00   0.000000E+00   0.000000E+00   0.000000E+00   0.000000E+00   0.000000E+00  -0.000000E+00  -0.000000E+00  -0.000000E+00  -0.000000E+00   0.000000E+00  -0.000000E+00   0.000000E+00   0.000000E+00  -0.000000E+00  -0.000000E+00  -0.000000E+00   0.000000E+00   0.000000E+00   0.000000E+00  -0.000000E+00  -0.000000E+00   0.000000E+00   0.000000E+00  -0.000000E+00  -0.000000E+00  -0.000000E+00  -0.000000E+00  -0.000000E+00   0.000000E+00   0.000000E+00  -0.000000E+00  -0.000000E+00   0.000000E+00   0.000000E+00   0.000000E+00  -0.000000E+00  -0.000000E+00   0.000000E+00   0.000000E+00  -0.000000E+00   0.000000E+00  -0.000000E+00  -0.000000E+00  -0.000000E+00   0.000000E+00  -0.000000E+00   0.000000E+00  -0.000000E+00  -0.000000E+00  -0.000000E+00  -0.000000E+00  -0.000000E+00   0.000000E+00   0.000000E+00  -0.000000E+00   0.000000E+00  -0.000000E+00  -0.000000E+00  -0.000000E+00  -0.000000E+00  -0.000000E+00  -0.000000E+00  -0.000000E+00   0.000000E+00   0.000000E+00   0.000000E+00   1.401298E-45  -3.643376E-44  -4.652311E-43  -3.186553E-42   3.117889E-42   3.492792E-40   5.162644E-39   2.599029E-38   3.194278E-38  -2.889886E-36  -3.429688E-35  -2.797019E-34   4.481217E-33   6.578905E-33  -1.890103E-32   1.942173E-32   5.942296E-32  -9.769220E-31  -1.979611E-29   2.781388E-28   9.976828E-29  -7.661387E-28   1.750461E-27   3.755497E-26  -1.938777E-26   1.458503E-26  -2.806844E-24   7.991742E-24   6.823521E-24  -5.856981E-24  -2.875784E-22   1.479915E-22  -2.688048E-22   1.029101E-21   1.596000E-20  -3.806628E-20   2.558038E-19  -5.796389E-19   3.640862E-20   5.320709E-21   4.211756E-22   6.955880E-24  -9.520436E-25  -2.453891E-23   6.358603E-24   2.068486E-25  -4.968529E-27  -5.097735E-26   8.012249E-25  -1.333992E-26   1.380860E-27   2.001721E-27   1.864545E-26  -6.303418E-26  -3.799107E-26   9.567280E-26   1.255437E-24   8.671094E-26  -1.308258E-25   5.460480E-25  -1.653062E-24   1.643328E-26   2.988922E-26   2.206691E-25   4.868354E-26   2.897214E-26   3.191515E-28  -2.594686E-28  -2.064379E-29  -2.038680E-29   1.203211E-28  -5.254871E-30   2.519680E-27  -3.726468E-29  -3.642576E-29  -3.119174E-29   1.550919E-29   4.471458E-30   1.535085E-29  -2.828639E-29  -4.438458E-29   1.961883E-29   1.153695E-29  -2.638782E-30  -6.685424E-31   4.737711E-31  -4.859685E-31   5.813601E-31   3.444649E-29   4.733648E-28   2.239404E-27  -6.354389E-27   2.423004E-27   3.832289E-25   1.236773E-24  -1.649257E-23   2.166966E-25  -1.298900E-24  -1.742082E-24   1.643446E-25  -4.184690E-25  -1.024810E-25  -5.642867E-25   8.765590E-26  -1.257614E-26  -2.602339E-27  -2.458258E-28  -1.096253E-29   9.061779E-31   2.359846E-31   2.425413E-32   1.275708E-33  -5.761991E-35  -2.106641E-35  -2.363846E-36  -1.417825E-37   2.726090E-39   1.847105E-39   2.319037E-40   4.598781E-41   0.000000E+00
  -0.000000E+00  -0.000000E+00  -0.000000E+00  -0.000000E+00  -0.000000E+00   0.000000E+00   0.000000E+00   0.000000E+00   0.000000E+00  -0.000000E+00  -0.000000E+00  -0.000000E+00  -0.000000E+00   0.000000E+00   0.000000E+00   0.000000E+00   0.000000E+00   0.000000E+00  -0.000000E+00  -0.000000E+00  -0.000000E+00  -0.000000E+00   0.000000E+00  -0.000000E+00   0.000000E+00   0.000000E+00  -0.000000E+00  -0.000000E+00  -0.000000E+00   0.000000E+00   0.000000E+00   0.000000E+00  -0.000000E+00  -0.000000E+00   0.000000E+00   0.000000E+00  -0.000000E+00  -0.000000E+00  -0.000000E+00  -0.000000E+00  -0.000000E+00   0.000000E+00   0.000000E+00  -0.000000E+00  -0.000000E+00   0.000000E+00   0.000000E+00   0.000000E+00  -0.000000E+00  -0.000000E+00   0.000000E+00   0.000000E+00  -0.000000E+00   0.000000E+00  -0.000000E+00  -0.000000E+00  -0.000000E+00   0.000000E+00  -0.000000E+00   0.000000E+00  -0.000000E+00  -0.000000E+00  -0.000000E+00  -0.000000E+00  -0.000000E+00   0.000000E+00   0.000000E+00  -0.000000E+00   0.000000E+00  -0.000000E+00  -0.000000E+00  -0.000000E+00  -0.000000E+00  -0.000000E+00  -0.000000E+00  -0.000000E+00   0.000000E+00   0.000000E+00   1.401298E-45   1.541428E-44  -6.936427E-43  -8.867417E-42  -6.063979E-41   5.933238E-41   6.647489E-39   9.825544E-38   4.946471E-37   6.079350E-37  -5.500031E-35  -6.527382E-34  -5.323287E-33   8.528652E-32   1.252097E-31  -3.597244E-31   3.696344E-31   1.130938E-30  -1.859278E-29  -3.767595E-28   5.293537E-27   1.898790E-27  -1.458115E-26   3.331477E-26   7.147463E-25  -3.689880E-25   2.775823E-25  -5.341986E-23   1.520988E-22   1.298652E-22  -1.114701E-22  -5.473192E-21   2.816573E-21  -5.115894E-21   1.958585E-20   3.037506E-19  -7.244774E-19   4.868458E-18  -1.103169E-17   6.929289E-19   1.012637E-19   8.015815E-21   1.323843E-22  -1.811929E-23  -4.670246E-22   1.210169E-22   3.936742E-24  -9.456103E-26  -9.702010E-25   1.524891E-23  -2.538854E-25   2.628053E-26   3.809676E-26   3.548602E-25  -1.199667E-24  -7.230460E-25   1.820845E-24   2.389348E-23   1.650283E-24  -2.489877E-24   1.039239E-23  -3.146108E-23   3.127583E-25   5.688515E-25   4.199774E-24   9.265451E-25   5.513977E-25   6.074092E-27  -4.938207E-27  -3.928925E-28  -3.880016E-28   2.289951E-27  -1.000107E-28   4.795456E-26  -7.092214E-28  -6.932550E-28  -5.936412E-28   2.951709E-28   8.510079E-29   2.921574E-28  -5.383465E-28  -8.447274E-28   3.733855E-28   2.195712E-28  -5.022130E-29  -1.272370E-29   9.016811E-30  -9.248951E-30   1.106444E-29   6.555856E-28   9.009078E-27   4.262034E-26  -1.209367E-25   4.611461E-26   7.293612E-24   2.353827E-23  -3.138865E-22   4.124169E-24  -2.472067E-23  -3.315530E-23   3.127806E-24  -7.964302E-24  -1.950418E-24  -1.073950E-23   1.668267E-24  -2.393491E-25  -4.952772E-26  -4.678556E-27  -2.086390E-28   1.724638E-29   4.491260E-30   4.616045E-31   2.427927E-32  -1.096622E-33  -4.009360E-34  -4.498872E-35  -2.698405E-36   5.188295E-38   3.515410E-38   4.413590E-39   8.752412E-40   0.000000E+00
  -0.000000E+00  -0.000000E+00  -0.000000E+00  -0.000000E+00  -0.000000E+00   0.000000E+00   0.000000E+00   0.000000E+00   0.000000E+00  -0.000000E+00  -0.000000E+00  -0.000000E+00  -0.000000E+00   0.000000E+00   0.000000E+00   0.000000E+00   0.000000E+00   0.000000E+00  -0.000000E+00  -0.000000E+00  -0.000000E+00  -0.000000E+00   0.000000E+00  -0.000000E+00   0.000000E+00   0.000000E+00  -0.000000E+00  -0.000000E+00  -0.000000E+00   0.000000E+00   0.000000E+00   0.000000E+00  -0.000000E+00  -0.000000E+00   0.000000E+00   0.000000E+00  -0.000000E+00  -0.000000E+00  -0.000000E+00  -0.000000E+00  -0.000000E+00   0.000000E+00   0.000000E+00  -0.000000E+00  -0.000000E+00   0.000000E+00   0.000000E+00   0.000000E+00  -0.000000E+00  -0.000000E+00   0.000000E+00   0.000000E+00  -0.000000E+00   0.000000E+00  -0.000000E+00  -0.000000E+00  -0.000000E+00   0.000000E+00  -0.000000E+00   0.000000E+00  -0.000000E+00  -0.000000E+00  -0.000000E+00  -0.000000E+00  -0.000000E+00   0.000000E+00   0.000000E+00  -0.000000E+00   0.000000E+00  -0.000000E+00  -0.000000E+00  -0.000000E+00  -0.000000E+00  -0.000000E+00  -0.000000E+00  -0.000000E+00   1.401298E-45   2.802597E-45   2.101948E-44   2.858649E-43  -1.233283E-41  -1.578128E-40  -1.079225E-39   1.055976E-39   1.183084E-37   1.748697E-36   8.803460E-36   1.081970E-35  -9.788656E-34  -1.161708E-32  -9.474097E-32   1.517883E-30   2.228414E-30  -6.402179E-30   6.578551E-30   2.012781E-29  -3.309042E-28  -6.705361E-27   9.421148E-26   3.379363E-26  -2.595074E-25   5.929182E-25   1.272067E-23  -6.567047E-24   4.940259E-24  -9.507376E-22   2.706972E-21   2.311271E-21  -1.983884E-21  -9.740890E-20   5.012784E-20  -9.104989E-20   3.485783E-19   5.405988E-18  -1.289385E-17   8.664616E-17  -1.963360E-16   1.233237E-17   1.802237E-18   1.426611E-19   2.356104E-21  -3.224773E-22  -8.311848E-21   2.153793E-21   7.006399E-23  -1.682946E-24  -1.726711E-23   2.713918E-22  -4.518514E-24   4.677266E-25   6.780253E-25   6.315609E-24  -2.135101E-23  -1.286838E-23   3.240640E-23   4.252432E-22   2.937083E-23  -4.431346E-23   1.849580E-22  -5.599272E-22   5.566301E-24   1.012411E-23   7.474530E-23   1.649014E-23   9.813476E-24   1.081034E-25  -8.788752E-26  -6.992488E-27  -6.905441E-27   4.075530E-26  -1.779936E-27   8.534691E-25  -1.262234E-26  -1.233818E-26  -1.056530E-26   5.253291E-27   1.514578E-27   5.199658E-27  -9.581197E-27  -1.503400E-26   6.645312E-27   3.907808E-27  -8.938114E-28  -2.264495E-28   1.604763E-28  -1.646078E-28   1.969190E-28   1.166776E-26   1.603387E-25   7.585336E-25  -2.152366E-24   8.207227E-25   1.298077E-22   4.189212E-22  -5.586381E-21   7.339971E-23  -4.399650E-22  -5.900800E-22   5.566698E-23  -1.417443E-22  -3.471248E-23  -1.911358E-22   2.969091E-23  -4.259804E-24  -8.814674E-25  -8.326639E-26  -3.713243E-27   3.069416E-28   7.993299E-29   8.215386E-30   4.321093E-31  -1.951708E-32  -7.135639E-33  -8.006847E-34  -4.802474E-35   9.233846E-37   6.256535E-37   7.855068E-38   1.557707E-38   0.000000E+00
  -0.000000E+00  -0.000000E+00  -0.000000E+00  -0.000000E+00  -0.000000E+00   0.000000E+00   0.000000E+00   0.000000E+00   0.000000E+00  -0.000000E+00  -0.000000E+00  -0.000000E+00  -0.000000E+00   0.000000E+00   0.000000E+00   0.000000E+00   0.000000E+00   0.000000E+00  -0.000000E+00  -0.000000E+00  -0.000000E+00  -0.000000E+00   0.000000E+00  -0.000000E+00   0.000000E+00   0.000000E+00  -0.000000E+00  -0.000000E+00  -0.000000E+00   0.000000E+00   0.000000E+00   0.000000E+00  -0.000000E+00  -0.000000E+00   0.000000E+00   0.000000E+00  -0.000000E+00  -0.000000E+00  -0.000000E+00  -0.000000E+00  -0.000000E+00   0.000000E+00   0.000000E+00  -0.000000E+00  -0.000000E+00   0.000000E+00   0.000000E+00   1.401298E-45  -0.000000E+00  -0.000000E+00   0.000000E+00   0.000000E+00  -0.000000E+00   0.000000E+00  -0.000000E+00  -0.000000E+00  -0.000000E+00   0.000000E+00  -0.000000E+00   0.000000E+00  -1.401298E-45  -0.000000E+00  -0.000000E+00  -0.000000E+00  -0.000000E+00   0.000000E+00   0.000000E+00  -0.000000E+00   0.000000E+00  -0.000000E+00  -0.000000E+00  -0.000000E+00  -0.000000E+00  -0.000000E+00  -0.000000E+00  -8.407791E-45   3.222986E-44   4.203895E-44   3.517259E-43   4.861104E-42  -2.102200E-40  -2.689910E-39  -1.839538E-38   1.799908E-38   2.016564E-36   2.980649E-35   1.500548E-34   1.844214E-34  -1.668474E-32  -1.980128E-31  -1.614857E-30   2.587228E-29   3.798327E-29  -1.091250E-28   1.121313E-28   3.430781E-28  -5.640254E-27  -1.142927E-25   1.605833E-24   5.760116E-25  -4.423298E-24   1.010628E-23   2.168234E-22  -1.119352E-22   8.420660E-23  -1.620530E-20   4.614028E-20   3.939556E-20  -3.381525E-20  -1.660332E-18   8.544278E-19  -1.551943E-18   5.941509E-18   9.214495E-17  -2.197755E-16   1.476882E-15  -3.346542E-15   2.102050E-16   3.071909E-17   2.431655E-18   4.015974E-20  -5.496618E-21  -1.416753E-19   3.671136E-20   1.194239E-21  -2.868577E-23  -2.943175E-22   4.625867E-21  -7.701797E-23   7.972389E-24   1.155693E-23   1.076494E-22  -3.639275E-22  -2.193412E-22   5.523664E-22   7.248261E-21   5.006251E-22  -7.553220E-22   3.152605E-21  -9.543947E-21   9.487747E-23   1.725652E-22   1.274032E-21   2.810741E-22   1.672705E-22   1.842620E-24  -1.498041E-24  -1.191868E-25  -1.177031E-25   6.946731E-25  -3.033897E-26   1.454736E-23  -2.151474E-25  -2.103039E-25  -1.800853E-25   8.954223E-26   2.581594E-26   8.862804E-26  -1.633113E-25  -2.562541E-25   1.132692E-25   6.660849E-26  -1.523499E-26  -3.859826E-27   2.735315E-27  -2.805736E-27   3.356479E-27   1.988766E-25   2.732969E-24   1.292919E-23  -3.668703E-23   1.398920E-23   2.212570E-21   7.140503E-21  -9.521974E-20   1.251096E-21  -7.499193E-21  -1.005790E-20   9.488424E-22  -2.416028E-21  -5.916735E-22  -3.257906E-21   5.060809E-22  -7.260827E-23  -1.502459E-23  -1.419274E-24  -6.329213E-26   5.231813E-27   1.362456E-27   1.400311E-28   7.365293E-30  -3.326682E-31  -1.216268E-31  -1.364765E-32  -8.185806E-34   1.573907E-35   1.066425E-35   1.338894E-36   2.655108E-37   0.000000E+00
  -0.000000E+00  -0.000000E+00  -0.000000E+00  -0.000000E+00  -0.000000E+00   0.000000E+00   0.000000E+00   0.000000E+00   0.000000E+00  -0.000000E+00  -0.000000E+00  -0.000000E+00  -0.000000E+00   0.000000E+00   0.000000E+00   0.000000E+00   0.000000E+00   0.000000E+00  -0.000000E+00  -0.000000E+00  -0.000000E+00  -0.000000E+00   0.000000E+00  -0.000000E+00   0.000000E+00   0.000000E+00  -0.000000E+00  -0.000000E+00  -0.000000E+00   0.000000E+00   0.000000E+00   0.000000E+00  -0.000000E+00  -0.000000E+00   0.000000E+00   0.000000E+00  -0.000000E+00  -0.000000E+00  -1.401298E-45  -0.000000E+00  -0.000000E+00   0.000000E+00   0.000000E+00  -0.000000E+00  -0.000000E+00   0.000000E+00   0.000000E+00   3.082857E-44  -4.203895E-45  -0.000000E+00   0.000000E+00   0.000000E+00  -0.000000E+00   0.000000E+00  -0.000000E+00  -0.000000E+00  -0.000000E+00   0.000000E+00  -1.401298E-45   0.000000E+00  -1.401298E-44  -9.809089E-45  -0.000000E+00  -0.000000E+00  -0.000000E+00   0.000000E+00   0.000000E+00  -0.000000E+00   0.000000E+00  -0.000000E+00  -0.000000E+00  -0.000000E+00  -0.000000E+00  -0.000000E+00  -1.401298E-45  -1.331234E-43   5.437038E-43   6.992479E-43   5.816790E-42   8.037007E-41  -3.475844E-39  -4.447572E-38  -3.041542E-37   2.976018E-37   3.334242E-35   4.928288E-34   2.481047E-33   3.049275E-33  -2.758701E-31  -3.273999E-30  -2.670050E-29   4.277794E-28   6.280258E-28  -1.804302E-27   1.854009E-27   5.672548E-27  -9.325750E-26  -1.889747E-24   2.655128E-23   9.523934E-24  -7.313602E-23   1.671000E-22   3.585018E-21  -1.850767E-21   1.392295E-21  -2.679429E-19   7.628960E-19   6.513769E-19  -5.591106E-19  -2.745239E-17   1.412734E-17  -2.566026E-17   9.823854E-17   1.523550E-15  -3.633828E-15   2.441917E-14  -5.533264E-14   3.475587E-15   5.079178E-16   4.020565E-17   6.640121E-19  -9.088259E-20  -2.342498E-18   6.069957E-19   1.974588E-20  -4.742984E-22  -4.866326E-21   7.648537E-20  -1.273436E-21   1.318177E-22   1.910854E-22   1.779905E-21  -6.017277E-21  -3.626648E-21   9.132977E-21   1.198447E-19   8.277474E-21  -1.248870E-20   5.212604E-20  -1.578022E-19   1.568730E-21   2.853241E-21   2.106519E-20   4.647357E-21   2.765696E-21   3.046638E-23  -2.476902E-23  -1.970667E-24  -1.946135E-24   1.148592E-23  -5.016329E-25   2.405301E-22  -3.557307E-24  -3.477223E-24  -2.977580E-24   1.480516E-24   4.268478E-25   1.465400E-24  -2.700234E-24  -4.236976E-24   1.872824E-24   1.101323E-24  -2.518996E-25  -6.381942E-26   4.522644E-26  -4.639081E-26   5.549695E-26   3.288281E-24   4.518766E-23   2.137747E-22  -6.065934E-22   2.313013E-22   3.658324E-20   1.180630E-19  -1.574389E-18   2.068597E-20  -1.239937E-19  -1.663001E-19   1.568842E-20  -3.994728E-20  -9.782891E-21  -5.386711E-20   8.367680E-21  -1.200525E-21  -2.484207E-22  -2.346666E-23  -1.046489E-24   8.650423E-26   2.252722E-26   2.315312E-27   1.217798E-28  -5.500428E-30  -2.011011E-30  -2.256540E-31  -1.353463E-32   2.602341E-34   1.763256E-34   2.213765E-35   4.390029E-36   0.000000E+00
  -0.000000E+00  -0.000000E+00  -0.000000E+00  -0.000000E+00  -0.000000E+00   0.000000E+00   0.000000E+00   0.000000E+00   0.000000E+00  -0.000000E+00  -0.000000E+00  -0.000000E+00  -0.000000E+00   0.000000E+00   0.000000E+00   0.000000E+00   0.000000E+00   0.000000E+00  -0.000000E+00  -0.000000E+00  -0.000000E+00  -0.000000E+00   0.000000E+00  -0.000000E+00   0.000000E+00   0.000000E+00  -0.000000E+00  -0.000000E+00  -0.000000E+00   0.000000E+00   0.000000E+00   0.000000E+00  -0.000000E+00  -0.000000E+00   0.000000E+00   0.000000E+00  -0.000000E+00  -1.401298E-45  -1.261169E-44  -5.605194E-45  -1.401298E-45   0.000000E+00   1.401298E-45  -2.802597E-45  -4.203895E-45   4.203895E-45   9.809089E-45   4.904545E-43  -6.305843E-44  -4.203895E-45   0.000000E+00   0.000000E+00  -0.000000E+00   0.000000E+00  -1.401298E-45  -2.802597E-45  -2.802597E-45   7.006492E-45  -1.681558E-44   7.006492E-45  -2.228065E-43  -1.611493E-43  -1.401298E-45  -1.401298E-45  -1.401298E-45   1.401298E-45   0.000000E+00  -0.000000E+00   0.000000E+00  -1.401298E-45  -1.401298E-45  -1.401298E-45  -2.802597E-45  -0.000000E+00  -2.522337E-44  -2.156598E-42   8.788944E-42   1.130287E-41   9.402152E-41   1.298952E-39  -5.617734E-38  -7.188261E-37  -4.915806E-36   4.809904E-36   5.388874E-34   7.965205E-33   4.009922E-32   4.928304E-32  -4.458672E-30  -5.291508E-29  -4.315392E-28   6.913864E-27   1.015029E-26  -2.916153E-26   2.996489E-26   9.168094E-26  -1.507248E-24  -3.054250E-23   4.291275E-22   1.539279E-22  -1.182040E-21   2.700705E-21   5.794184E-20  -2.991249E-20   2.250257E-20  -4.330551E-18   1.233009E-17   1.052769E-17  -9.036466E-18  -4.436915E-16   2.283292E-16  -4.147266E-16   1.587752E-15   2.462394E-14  -5.873070E-14   3.946679E-13  -8.942980E-13   5.617318E-14   8.209077E-15   6.498124E-16   1.073191E-17  -1.468864E-18  -3.785995E-17   9.810395E-18   3.191371E-19  -7.665714E-21  -7.865060E-20   1.236173E-18  -2.058155E-20   2.130466E-21   3.088363E-21   2.876721E-20  -9.725253E-20  -5.861466E-20   1.476092E-19   1.936956E-18   1.337823E-19  -2.018451E-19   8.424723E-19  -2.550434E-18   2.535415E-20   4.611469E-20   3.404602E-19   7.511159E-20   4.469977E-20   4.924041E-22  -4.003222E-22  -3.185034E-23  -3.145385E-23   1.856379E-22  -8.107498E-24   3.887499E-21  -5.749396E-23  -5.619962E-23  -4.812430E-23   2.392842E-23   6.898806E-24   2.368412E-23  -4.364176E-23  -6.847893E-23   3.026898E-23   1.779982E-23  -4.071255E-24  -1.031463E-24   7.309596E-25  -7.497783E-25   8.969537E-25   5.314590E-23   7.303327E-22   3.455073E-21  -9.803894E-21   3.738341E-21   5.912662E-19   1.908160E-18  -2.544562E-17   3.343311E-19  -2.004013E-18  -2.687778E-18   2.535597E-19  -6.456365E-19  -1.581132E-19  -8.706118E-19   1.352402E-19  -1.940314E-20  -4.015029E-21  -3.792732E-22  -1.691359E-23   1.398100E-24   3.640898E-25   3.742057E-26   1.968231E-27  -8.889910E-29  -3.250239E-29  -3.647069E-30  -2.187497E-31   4.205959E-33   2.849813E-33   3.577934E-34   7.095259E-35   0.000000E+00