# HOB package for  MODFLOW-2005, generated by Flopy.
        58         0         0         7      -999
         1
FLI182                  1         42         12          1                  0.0     0.0000     0.0000     5.5000   # DATASET 3 - Observation 1
214601                  1         59         26          1                  0.0     0.0000     0.0000     0.2000   # DATASET 3 - Observation 2
214602                  1         61         27          1                  0.0     0.0000     0.0000     0.4000   # DATASET 3 - Observation 3
TaputimuwindmillH            1         65         27          1                  0.0     0.0000     0.0000     0.3000   # DATASET 3 - Observation 4
214604                  1         64         27          1                  0.0     0.0000     0.0000     0.6000   # DATASET 3 - Observation 5
Malaeloa70              1         56         28          1                  0.0     0.0000     0.0000     2.6000   # DATASET 3 - Observation 6
MOA15                   1         53         28          1                  0.0     0.0000     0.0000     2.3000   # DATASET 3 - Observation 7
MOA169                  1         53         29          1                  0.0     0.0000     0.0000     3.5000   # DATASET 3 - Observation 8
Puapua47                1         58         29          1                  0.0     0.0000     0.0000     1.2000   # DATASET 3 - Observation 9
TGH1                    1         53         30          1                  0.0     0.0000     0.0000     3.6000   # DATASET 3 - Observation 10
Malaeloa92              1         58         30          1                  0.0     0.0000     0.0000     1.2000   # DATASET 3 - Observation 11
Malaeloa91              1         57         31          1                  0.0     0.0000     0.0000     1.8000   # DATASET 3 - Observation 12
TGH3                    1         60         35          1                  0.0     0.0000     0.0000     1.9000   # DATASET 3 - Observation 13
PAV177                  1         54         36          1                  0.0     0.0000     0.0000     1.3000   # DATASET 3 - Observation 14
Iliili79                1         59         36          1                  0.0     0.0000     0.0000     0.9000   # DATASET 3 - Observation 15
Iliili62                1         60         36          1                  0.0     0.0000     0.0000     2.6000   # DATASET 3 - Observation 16
MES6                    1         48         37          1                  0.0     0.0000     0.0000    44.7000   # DATASET 3 - Observation 17
ILI76                   1         59         37          1                  0.0     0.0000     0.0000     1.6000   # DATASET 3 - Observation 18
Iliili74                1         60         37          1                  0.0     0.0000     0.0000     1.8000   # DATASET 3 - Observation 19
194407                  1         47         38          1                  0.0     0.0000     0.0000     3.0000   # DATASET 3 - Observation 20
Iliili84                1         59         38          1                  0.0     0.0000     0.0000     1.8000   # DATASET 3 - Observation 21
MMI3                    1         43         39          1                  0.0     0.0000     0.0000     5.9000   # DATASET 3 - Observation 22
Malaeimi109             1         44         39          1                  0.0     0.0000     0.0000     8.2000   # DATASET 3 - Observation 23
Malaeimi89              1         45         40          1                  0.0     0.0000     0.0000     6.0000   # DATASET 3 - Observation 24
Malaeimi67              1         46         40          1                  0.0     0.0000     0.0000     3.2000   # DATASET 3 - Observation 25
MMI4                    1         40         41          1                  0.0     0.0000     0.0000    16.5000   # DATASET 3 - Observation 26
194409                  1         43         41          1                  0.0     0.0000     0.0000    25.4000   # DATASET 3 - Observation 27
214301                  1         63         41          1                  0.0     0.0000     0.0000     0.6000   # DATASET 3 - Observation 28
MMI1                    1         42         42          1                  0.0     0.0000     0.0000    20.3000   # DATASET 3 - Observation 29
TAF72                   1         47         42          1                  0.0     0.0000     0.0000     1.8000   # DATASET 3 - Observation 30
204301                  1         51         43          1                  0.0     0.0000     0.0000     0.3000   # DATASET 3 - Observation 31
204302                  1         57         44          1                  0.0     0.0000     0.0000     0.5000   # DATASET 3 - Observation 32
194302                  1         47         45          1                  0.0     0.0000     0.0000     1.0000   # DATASET 3 - Observation 33
VAI183                  1         27         49          1                  0.0     0.0000     0.0000    62.5000   # DATASET 3 - Observation 34
NUULI24B                1         38         49          1                  0.0     0.0000     0.0000    15.8000   # DATASET 3 - Observation 35
Pago100(watertank)            1         22         50          1                  0.0     0.0000     0.0000     1.2000   # DATASET 3 - Observation 36
PAGO163                 1         23         50          1                  0.0     0.0000     0.0000     7.3000   # DATASET 3 - Observation 37
PAGOTANK24              1         21         50          1                  0.0     0.0000     0.0000     1.2000   # DATASET 3 - Observation 38
Pagoplaza12             1         22         51          1                  0.0     0.0000     0.0000     3.0000   # DATASET 3 - Observation 39
FALU179                 1         32         56          1                  0.0     0.0000     0.0000     2.7000   # DATASET 3 - Observation 40
174101                  1         31         57          1                  0.0     0.0000     0.0000     6.1000   # DATASET 3 - Observation 41
UTULEI3                 1         26         57          1                  0.0     0.0000     0.0000     0.1000   # DATASET 3 - Observation 42
Sailele130              1         15         85          1                  0.0     0.0000     0.0000     2.7000   # DATASET 3 - Observation 43
163502                  1         23         87          1                  0.0     0.0000     0.0000     5.3000   # DATASET 3 - Observation 44
163301                  1         18         94          1                  0.0     0.0000     0.0000     5.7000   # DATASET 3 - Observation 45
MALAEIMI88              1         45         39          1                  0.0     0.0000     0.0000    12.3500   # DATASET 3 - Observation 46
MMI2                    1         41         40          1                  0.0     0.0000     0.0000    21.1000   # DATASET 3 - Observation 47
Malaeimi69              1         45         41          1                  0.0     0.0000     0.0000     5.3000   # DATASET 3 - Observation 48
194311                  1         49         41          1                  0.0     0.0000     0.0000     0.8750   # DATASET 3 - Observation 49
194304                  1         48         42          1                  0.0     0.0000     0.0000     1.9333   # DATASET 3 - Observation 50
164204                  1         24         50          1                  0.0     0.0000     0.0000     9.1750   # DATASET 3 - Observation 51
Pago107                 1         25         50          1                  0.0     0.0000     0.0000    16.4667   # DATASET 3 - Observation 52
Fagatogo102             1         26         54          1                  0.0     0.0000     0.0000     6.6500   # DATASET 3 - Observation 53
VATI170                 1         13         62          1                  0.0     0.0000     0.0000     8.1500   # DATASET 3 - Observation 54
163903                  1         21         64          1                  0.0     0.0000     0.0000     5.5667   # DATASET 3 - Observation 55
AUA98                   1         20         64          1                  0.0     0.0000     0.0000     4.9000   # DATASET 3 - Observation 56
LAU96                   1         28         67          1                  0.0     0.0000     0.0000     6.6500   # DATASET 3 - Observation 57
153401                  1         12         94          1                  0.0     0.0000     0.0000     3.0500   # DATASET 3 - Observation 58
