# DIS package for  MODFLOW-2005, generated by Flopy.
         1       100       200         3         4         2
  0
CONSTANT    1.690000E+02                           #delr                          
CONSTANT    1.650000E+02                           #delc                          
CONSTANT    1.000000E+03                           #model_top                     
CONSTANT   -1.000000E+03                           #botm layer 1                  
  73050.000000          1000  1.000000  SS 
   4383.000000           120  1.000000  SS 
   6574.500000           180  1.000000  SS 
