# RCH package for  MODFLOW-2005, generated by Flopy.
         3         0
         1        -1 # Stress period 1
INTERNAL               1 (200E15.6) -1 #rech_1                        
   0.000000E+00   0.000000E+00   0.000000E+00   0.000000E+00   0.000000E+00  -0.000000E+00  -0.000000E+00  -0.000000E+00  -0.000000E+00   0.000000E+00   0.000000E+00   0.000000E+00   0.000000E+00  -0.000000E+00  -0.000000E+00  -0.000000E+00  -0.000000E+00  -0.000000E+00   0.000000E+00   0.000000E+00   0.000000E+00  -0.000000E+00  -0.000000E+00   0.000000E+00  -0.000000E+00  -0.000000E+00   0.000000E+00   0.000000E+00   0.000000E+00  -0.000000E+00  -0.000000E+00   0.000000E+00   0.000000E+00   0.000000E+00  -0.000000E+00  -0.000000E+00   0.000000E+00   0.000000E+00   0.000000E+00   0.000000E+00   0.000000E+00  -0.000000E+00  -0.000000E+00   0.000000E+00   0.000000E+00  -0.000000E+00  -0.000000E+00  -0.000000E+00   0.000000E+00   0.000000E+00  -0.000000E+00  -0.000000E+00   0.000000E+00  -0.000000E+00   0.000000E+00   0.000000E+00   0.000000E+00  -0.000000E+00   0.000000E+00  -0.000000E+00   0.000000E+00   0.000000E+00   0.000000E+00   0.000000E+00   0.000000E+00  -0.000000E+00  -0.000000E+00   0.000000E+00  -0.000000E+00   0.000000E+00   0.000000E+00   0.000000E+00   0.000000E+00   0.000000E+00   0.000000E+00   0.000000E+00  -0.000000E+00  -0.000000E+00  -0.000000E+00  -0.000000E+00   0.000000E+00   0.000000E+00   0.000000E+00  -0.000000E+00  -0.000000E+00  -0.000000E+00  -0.000000E+00  -0.000000E+00   0.000000E+00   0.000000E+00   0.000000E+00  -0.000000E+00  -0.000000E+00   0.000000E+00  -0.000000E+00  -0.000000E+00   0.000000E+00   0.000000E+00  -2.802597E-45  -0.000000E+00   5.605194E-45  -5.605194E-45  -1.989844E-43   3.503246E-44   4.596259E-43   1.761152E-41  -3.766410E-41  -2.937822E-41   1.466179E-41   1.246951E-39  -3.963363E-40   7.068065E-40  -2.199730E-39  -4.416060E-38   1.827557E-37  -9.099447E-37   9.245212E-37  -1.626125E-37  -1.504510E-38  -1.419046E-39  -6.012271E-41   1.590193E-41   9.278838E-41  -2.970472E-41  -1.716591E-42   9.809089E-44   7.426882E-43  -5.364171E-42   3.503246E-44  -5.605194E-45  -7.006492E-45  -7.567012E-44   2.550363E-43   1.443337E-43  -4.596259E-43  -5.654239E-42  -7.356817E-43   7.314778E-43  -3.185151E-42   8.298490E-42  -8.688050E-44  -1.583467E-43  -1.083204E-42  -1.093013E-43  -1.541428E-43   5.605194E-45   1.401298E-45   0.000000E+00   0.000000E+00  -1.401298E-45  -1.401298E-45  -1.541428E-44   0.000000E+00   0.000000E+00   0.000000E+00  -0.000000E+00  -0.000000E+00  -0.000000E+00   0.000000E+00   0.000000E+00  -0.000000E+00  -0.000000E+00   0.000000E+00   0.000000E+00  -0.000000E+00   0.000000E+00  -0.000000E+00  -0.000000E+00  -2.802597E-45  -1.401298E-44   4.063766E-44   1.317221E-43  -7.538986E-43  -3.974082E-42   5.323533E-41   1.793662E-43   5.771948E-42   8.567539E-42  -1.091612E-42   2.407431E-42   4.287973E-43   2.456476E-42  -4.119817E-43   4.764415E-44   1.681558E-44   1.401298E-45   0.000000E+00  -0.000000E+00  -0.000000E+00  -0.000000E+00  -0.000000E+00   0.000000E+00   0.000000E+00   0.000000E+00   0.000000E+00  -0.000000E+00  -0.000000E+00  -0.000000E+00  -0.000000E+00   0.000000E+00
  -0.000000E+00  -0.000000E+00  -0.000000E+00  -0.000000E+00  -0.000000E+00   0.000000E+00   0.000000E+00   0.000000E+00   0.000000E+00  -0.000000E+00  -0.000000E+00  -0.000000E+00  -0.000000E+00   0.000000E+00   0.000000E+00   0.000000E+00   0.000000E+00   0.000000E+00  -0.000000E+00  -0.000000E+00  -0.000000E+00  -0.000000E+00   0.000000E+00  -0.000000E+00   0.000000E+00   0.000000E+00  -0.000000E+00  -0.000000E+00  -0.000000E+00   0.000000E+00   0.000000E+00  -0.000000E+00  -0.000000E+00  -0.000000E+00   0.000000E+00   0.000000E+00  -0.000000E+00  -0.000000E+00  -0.000000E+00  -0.000000E+00  -0.000000E+00   0.000000E+00   0.000000E+00  -0.000000E+00  -0.000000E+00   0.000000E+00   0.000000E+00   0.000000E+00  -0.000000E+00  -0.000000E+00   0.000000E+00   0.000000E+00  -0.000000E+00   0.000000E+00  -0.000000E+00  -0.000000E+00  -0.000000E+00   0.000000E+00  -0.000000E+00   0.000000E+00  -0.000000E+00  -0.000000E+00  -0.000000E+00  -0.000000E+00  -0.000000E+00   0.000000E+00   0.000000E+00  -0.000000E+00   0.000000E+00  -0.000000E+00  -0.000000E+00  -0.000000E+00  -0.000000E+00  -0.000000E+00  -0.000000E+00  -0.000000E+00   0.000000E+00   0.000000E+00   0.000000E+00   0.000000E+00  -0.000000E+00  -1.401298E-45  -5.605194E-45   5.605194E-45   6.109661E-43   9.014553E-42   4.592756E-41   5.566518E-41  -5.072168E-39  -6.065308E-38  -4.950770E-37   7.919570E-36   1.162874E-35  -3.337608E-35   3.465323E-35   1.061086E-34  -1.744837E-33  -3.536082E-32   4.854604E-31   1.772686E-31  -1.351882E-30   2.976591E-30   6.507906E-29  -3.384228E-29   2.531930E-29  -4.930109E-27   1.405451E-26   1.203798E-26  -1.035515E-26  -5.098933E-25   2.598953E-25  -4.685587E-25   1.831290E-24   2.764771E-23  -6.779398E-23   4.535735E-22  -9.986342E-22   6.285708E-23   9.185809E-24   7.273850E-25   1.194391E-26  -1.499181E-27  -4.276573E-26   1.107273E-26   3.602411E-28  -7.971798E-30  -8.787362E-29   1.390488E-27  -2.215219E-29   2.290179E-30   3.233639E-30   2.996524E-29  -1.003381E-28  -6.130656E-29   1.550552E-28   2.038195E-27   1.668142E-28  -2.233090E-28   9.306703E-28  -2.886230E-27   3.554454E-29   5.391054E-29   4.002618E-28   9.616286E-29   5.088808E-29   5.605973E-31  -4.558260E-31  -3.589151E-32  -3.280526E-32   2.188289E-31  -4.779014E-32   4.931276E-30  -1.268447E-31  -8.091865E-32  -6.897745E-32   3.067653E-32   8.867771E-33   3.134772E-32  -4.720737E-32  -8.403671E-32   3.571693E-32   1.950592E-32  -4.428799E-33  -1.190410E-33   8.836186E-34  -8.463694E-34   9.917016E-34   5.874226E-32   8.086179E-31   3.702988E-30  -1.154025E-29   1.065956E-30   6.113682E-28   1.866233E-27  -2.433351E-26   2.451698E-28  -2.324182E-27  -2.819255E-27   3.096970E-28  -7.156799E-28  -1.840033E-28  -1.000537E-27   1.561901E-28  -2.240902E-29  -4.636987E-30  -4.380255E-31  -1.953363E-32   1.614676E-33   4.204900E-34   4.321730E-35   2.273125E-36  -1.026702E-37  -3.753726E-38  -4.212027E-39  -2.526359E-40   4.856900E-42   3.291650E-42   4.133830E-43   8.127531E-44   0.000000E+00
  -0.000000E+00  -0.000000E+00  -0.000000E+00  -0.000000E+00  -0.000000E+00   0.000000E+00   0.000000E+00   0.000000E+00   0.000000E+00  -0.000000E+00  -0.000000E+00  -0.000000E+00  -0.000000E+00   0.000000E+00   0.000000E+00   0.000000E+00   0.000000E+00   0.000000E+00  -0.000000E+00  -0.000000E+00  -0.000000E+00  -0.000000E+00   0.000000E+00  -0.000000E+00   0.000000E+00   0.000000E+00  -0.000000E+00  -0.000000E+00  -0.000000E+00   0.000000E+00   0.000000E+00  -0.000000E+00  -0.000000E+00  -0.000000E+00   0.000000E+00   0.000000E+00  -0.000000E+00  -0.000000E+00  -0.000000E+00  -0.000000E+00  -0.000000E+00   0.000000E+00   0.000000E+00  -0.000000E+00  -0.000000E+00   0.000000E+00   0.000000E+00   0.000000E+00  -0.000000E+00  -0.000000E+00   0.000000E+00   0.000000E+00  -0.000000E+00   0.000000E+00  -0.000000E+00  -0.000000E+00  -0.000000E+00   0.000000E+00  -0.000000E+00   0.000000E+00  -0.000000E+00  -0.000000E+00  -0.000000E+00  -0.000000E+00  -0.000000E+00   0.000000E+00   0.000000E+00  -0.000000E+00   0.000000E+00  -0.000000E+00  -0.000000E+00  -0.000000E+00  -0.000000E+00  -0.000000E+00  -0.000000E+00  -0.000000E+00   0.000000E+00   0.000000E+00   0.000000E+00   0.000000E+00  -1.401298E-45  -2.242078E-44  -1.499389E-43   1.471363E-43   1.642602E-41   2.426278E-40   1.236118E-39   1.498177E-39  -1.365131E-37  -1.632427E-36  -1.332458E-35   2.131485E-34   3.129777E-34  -8.982892E-34   9.326624E-34   2.855823E-33  -4.696081E-32  -9.517067E-31   1.306576E-29   4.771035E-30  -3.638477E-29   8.011242E-29   1.751548E-27  -9.108363E-28   6.814476E-28  -1.326897E-25   3.782653E-25   3.239921E-25  -2.787000E-25  -1.372335E-23   6.994862E-24  -1.261086E-23   4.928763E-23   7.441147E-22  -1.824618E-21   1.220755E-20  -2.687740E-20   1.691745E-21   2.472283E-22   1.957695E-23   3.214602E-25  -4.034920E-26  -1.151003E-24   2.980132E-25   9.695584E-27  -2.145542E-28  -2.365044E-27   3.742382E-26  -5.962074E-28   6.163823E-29   8.703066E-29   8.064892E-28  -2.700516E-27  -1.650014E-27   4.173178E-27   5.485629E-26   4.489662E-27  -6.010172E-27   2.504820E-26  -7.768045E-26   9.566512E-28   1.450957E-27   1.077271E-26   2.588142E-27   1.369610E-27   1.508800E-29  -1.226817E-29  -9.659897E-31  -8.829258E-31   5.889594E-30  -1.286231E-30   1.327211E-28  -3.413917E-30  -2.177857E-30  -1.856470E-30   8.256329E-31   2.386686E-31   8.436975E-31  -1.270547E-30  -2.261777E-30   9.612911E-31   5.249854E-31  -1.191974E-31  -3.203889E-32   2.378185E-32  -2.277932E-32   2.669081E-32   1.580998E-30   2.176327E-29   9.966279E-29  -3.105960E-28   2.868930E-29   1.645446E-26   5.022807E-26  -6.549159E-25   6.598537E-27  -6.255340E-26  -7.587786E-26   8.335233E-27  -1.926192E-26  -4.952294E-27  -2.692862E-26   4.203724E-27  -6.031199E-28  -1.248006E-28  -1.178909E-29  -5.257312E-31   4.345765E-32   1.131713E-32   1.163157E-33   6.117923E-35  -2.763283E-36  -1.010284E-36  -1.133632E-37  -6.799476E-39   1.307355E-40   8.858168E-41   1.112211E-41   2.205644E-42   0.000000E+00
  -0.000000E+00  -0.000000E+00  -0.000000E+00  -0.000000E+00  -0.000000E+00   0.000000E+00   0.000000E+00   0.000000E+00   0.000000E+00  -0.000000E+00  -0.000000E+00  -0.000000E+00  -0.000000E+00   0.000000E+00   0.000000E+00   0.000000E+00   0.000000E+00   0.000000E+00  -0.000000E+00  -0.000000E+00  -0.000000E+00  -0.000000E+00   0.000000E+00  -0.000000E+00   0.000000E+00   0.000000E+00  -0.000000E+00  -0.000000E+00  -0.000000E+00   0.000000E+00   0.000000E+00  -0.000000E+00  -0.000000E+00  -0.000000E+00   0.000000E+00   0.000000E+00  -0.000000E+00  -0.000000E+00  -0.000000E+00  -0.000000E+00  -0.000000E+00   0.000000E+00   0.000000E+00  -0.000000E+00  -0.000000E+00   0.000000E+00   0.000000E+00   0.000000E+00  -0.000000E+00  -0.000000E+00   0.000000E+00   0.000000E+00  -0.000000E+00   0.000000E+00  -0.000000E+00  -0.000000E+00  -0.000000E+00   0.000000E+00  -0.000000E+00   0.000000E+00  -0.000000E+00  -0.000000E+00  -0.000000E+00  -0.000000E+00  -0.000000E+00   0.000000E+00   0.000000E+00  -0.000000E+00   0.000000E+00  -0.000000E+00  -0.000000E+00  -0.000000E+00  -0.000000E+00  -0.000000E+00  -0.000000E+00  -0.000000E+00   0.000000E+00   0.000000E+00   0.000000E+00   1.401298E-45  -3.643376E-44  -4.708363E-43  -3.215980E-42   3.145915E-42   3.525261E-40   5.207333E-39   2.652977E-38   3.215415E-38  -2.929868E-36  -3.503542E-35  -2.859744E-34   4.574630E-33   6.717180E-33  -1.927924E-32   2.001696E-32   6.129217E-32  -1.007881E-30  -2.042569E-29   2.804195E-28   1.023968E-28  -7.808961E-28   1.719386E-27   3.759202E-26  -1.954852E-26   1.462535E-26  -2.847810E-24   8.118395E-24   6.953574E-24  -5.981507E-24  -2.945328E-22   1.501249E-22  -2.706565E-22   1.057820E-21   1.597032E-20  -3.916026E-20   2.620005E-19  -5.768472E-19   3.630852E-20   5.306056E-21   4.201639E-22   6.899233E-24  -8.659814E-25  -2.470303E-23   6.396011E-24   2.080883E-25  -4.604799E-27  -5.075899E-26   8.031965E-25  -1.279591E-26   1.322890E-27   1.867867E-27   1.730901E-26  -5.795893E-26  -3.541289E-26   8.956547E-26   1.177335E-24   9.635790E-26  -1.289913E-25   5.375888E-25  -1.667191E-24   2.053181E-26   3.114068E-26   2.312057E-25   5.554715E-26   2.939480E-26   3.238213E-28  -2.633016E-28  -2.073224E-29  -1.894950E-29   1.264035E-28  -2.760532E-29   2.848484E-27  -7.327007E-29  -4.674154E-29  -3.984387E-29   1.771988E-29   5.122345E-30   1.810758E-29  -2.726869E-29  -4.854265E-29   2.063139E-29   1.126733E-29  -2.558235E-30  -6.876242E-31   5.104100E-31  -4.888936E-31   5.728428E-31   3.393166E-29   4.670869E-28   2.138980E-27  -6.666064E-27   6.157347E-28   3.531484E-25   1.078004E-24  -1.405592E-23   1.416189E-25  -1.342532E-24  -1.628504E-24   1.788922E-25  -4.134026E-25  -1.062870E-25  -5.779466E-25   9.022104E-26  -1.294426E-26  -2.678492E-27  -2.530194E-28  -1.128333E-29   9.326955E-31   2.428903E-31   2.496388E-32   1.313039E-33  -5.930604E-35  -2.168288E-35  -2.433020E-36  -1.459315E-37   2.805865E-39   1.901157E-39   2.386902E-40   4.733306E-41   0.000000E+00
  -0.000000E+00  -0.000000E+00  -0.000000E+00  -0.000000E+00  -0.000000E+00   0.000000E+00   0.000000E+00   0.000000E+00   0.000000E+00  -0.000000E+00  -0.000000E+00  -0.000000E+00  -0.000000E+00   0.000000E+00   0.000000E+00   0.000000E+00   0.000000E+00   0.000000E+00  -0.000000E+00  -0.000000E+00  -0.000000E+00  -0.000000E+00   0.000000E+00  -0.000000E+00   0.000000E+00   0.000000E+00  -0.000000E+00  -0.000000E+00  -0.000000E+00   0.000000E+00   0.000000E+00  -0.000000E+00  -0.000000E+00  -0.000000E+00   0.000000E+00   0.000000E+00  -0.000000E+00  -0.000000E+00  -0.000000E+00  -0.000000E+00  -0.000000E+00   0.000000E+00   0.000000E+00  -0.000000E+00  -0.000000E+00   0.000000E+00   0.000000E+00   0.000000E+00  -0.000000E+00  -0.000000E+00   0.000000E+00   0.000000E+00  -0.000000E+00   0.000000E+00  -0.000000E+00  -0.000000E+00  -0.000000E+00   0.000000E+00  -0.000000E+00   0.000000E+00  -0.000000E+00  -0.000000E+00  -0.000000E+00  -0.000000E+00  -0.000000E+00   0.000000E+00   0.000000E+00  -0.000000E+00   0.000000E+00  -0.000000E+00  -0.000000E+00  -0.000000E+00  -0.000000E+00  -0.000000E+00  -0.000000E+00  -0.000000E+00   0.000000E+00   0.000000E+00   1.401298E-45   1.401298E-44  -6.992479E-43  -8.950093E-42  -6.120311E-41   5.988449E-41   6.709270E-39   9.910595E-38   5.049146E-37   6.119578E-37  -5.576124E-35  -6.667940E-34  -5.442665E-33   8.706436E-32   1.278414E-31  -3.669224E-31   3.809628E-31   1.166513E-30  -1.918199E-29  -3.887417E-28   5.336944E-27   1.948815E-27  -1.486202E-26   3.272336E-26   7.154514E-25  -3.720475E-25   2.783496E-25  -5.419952E-23   1.545093E-22   1.323404E-22  -1.138400E-22  -5.605549E-21   2.857177E-21  -5.151134E-21   2.013242E-20   3.039471E-19  -7.452980E-19   4.986393E-18  -1.097856E-17   6.910238E-19   1.009849E-19   7.996559E-21   1.313062E-22  -1.648136E-23  -4.701481E-22   1.217289E-22   3.960336E-24  -8.763854E-26  -9.660451E-25   1.528644E-23  -2.435317E-25   2.517725E-26   3.554924E-26   3.294251E-25  -1.103074E-24  -6.739781E-25   1.704610E-24   2.240704E-23   1.833883E-24  -2.454963E-24   1.023139E-23  -3.172998E-23   3.907614E-25   5.926694E-25   4.400306E-24   1.057173E-24   5.594418E-25   6.162967E-27  -5.011155E-27  -3.945759E-28  -3.606470E-28   2.405711E-27  -5.253844E-28   5.421235E-26  -1.394476E-27  -8.895850E-28  -7.583086E-28   3.372447E-28   9.748848E-29   3.446235E-28  -5.189776E-28  -9.238637E-28   3.926567E-28   2.144397E-28  -4.868833E-29  -1.308686E-29   9.714124E-30  -9.304623E-30   1.090234E-29   6.457873E-28   8.889599E-27   4.070907E-26  -1.268685E-25   1.171866E-26   6.721120E-24   2.051656E-23  -2.675122E-22   2.695292E-24  -2.555106E-23  -3.099368E-23   3.404676E-24  -7.867879E-24  -2.022854E-24  -1.099948E-23   1.717087E-24  -2.463552E-25  -5.097705E-26  -4.815465E-27  -2.147444E-28   1.775106E-29   4.622688E-30   4.751125E-31   2.498976E-32  -1.128713E-33  -4.126686E-34  -4.630523E-35  -2.777369E-36   5.340121E-38   3.618282E-38   4.542746E-39   9.008541E-40   0.000000E+00
  -0.000000E+00  -0.000000E+00  -0.000000E+00  -0.000000E+00  -0.000000E+00   0.000000E+00   0.000000E+00   0.000000E+00   0.000000E+00  -0.000000E+00  -0.000000E+00  -0.000000E+00  -0.000000E+00   0.000000E+00   0.000000E+00   0.000000E+00   0.000000E+00   0.000000E+00  -0.000000E+00  -0.000000E+00  -0.000000E+00  -0.000000E+00   0.000000E+00  -0.000000E+00   0.000000E+00   0.000000E+00  -0.000000E+00  -0.000000E+00  -0.000000E+00   0.000000E+00   0.000000E+00  -0.000000E+00  -0.000000E+00  -0.000000E+00   0.000000E+00   0.000000E+00  -0.000000E+00  -0.000000E+00  -0.000000E+00  -0.000000E+00  -0.000000E+00   0.000000E+00   0.000000E+00  -0.000000E+00  -0.000000E+00   0.000000E+00   0.000000E+00   0.000000E+00  -0.000000E+00  -0.000000E+00   0.000000E+00   0.000000E+00  -0.000000E+00   0.000000E+00  -0.000000E+00  -0.000000E+00  -0.000000E+00   0.000000E+00  -0.000000E+00   0.000000E+00  -0.000000E+00  -0.000000E+00  -0.000000E+00  -0.000000E+00  -0.000000E+00   0.000000E+00   0.000000E+00  -0.000000E+00   0.000000E+00  -0.000000E+00  -0.000000E+00  -0.000000E+00  -0.000000E+00  -0.000000E+00  -0.000000E+00  -0.000000E+00   1.401298E-45   2.802597E-45   2.382207E-44   2.606415E-43  -1.244493E-41  -1.592786E-40  -1.089257E-39   1.065791E-39   1.194079E-37   1.763834E-36   8.986195E-36   1.089129E-35  -9.924083E-34  -1.186724E-32  -9.686560E-32   1.549524E-30   2.275251E-30  -6.530285E-30   6.780168E-30   2.076095E-29  -3.413906E-28  -6.918614E-27   9.498402E-26   3.468395E-26  -2.645060E-25   5.823926E-25   1.273321E-23  -6.621499E-24   4.953914E-24  -9.646134E-22   2.749872E-21   2.355322E-21  -2.026063E-21  -9.976450E-20   5.085049E-20  -9.167707E-20   3.583059E-19   5.409484E-18  -1.326441E-17   8.874510E-17  -1.953904E-16   1.229847E-17   1.797273E-18   1.423184E-19   2.336916E-21  -2.933262E-22  -8.367440E-21   2.166464E-21   7.048390E-23  -1.559743E-24  -1.719314E-23   2.720596E-22  -4.334244E-24   4.480909E-25   6.326860E-25   5.862928E-24  -1.963192E-23  -1.199509E-23   3.033772E-23   3.987883E-22   3.263846E-23  -4.369210E-23   1.820927E-22  -5.647129E-22   6.954559E-24   1.054801E-23   7.831426E-23   1.881500E-23   9.956641E-24   1.096851E-25  -8.918582E-26  -7.022447E-27  -6.418598E-27   4.281553E-26  -9.350505E-27   9.648418E-25  -2.481812E-26  -1.583235E-26  -1.349596E-26   6.002097E-27   1.735047E-27   6.133421E-27  -9.236481E-27  -1.644242E-26   6.988289E-27   3.816482E-27  -8.665284E-28  -2.329129E-28   1.728867E-28  -1.655986E-28   1.940340E-28   1.149337E-26   1.582122E-25   7.245178E-25  -2.257937E-24   2.085624E-25   1.196188E-22   3.651426E-22  -4.761037E-21   4.796933E-23  -4.547439E-22  -5.516087E-22   6.059457E-23  -1.400282E-22  -3.600165E-23  -1.957627E-22   3.055978E-23  -4.384496E-24  -9.072618E-25  -8.570303E-26  -3.821904E-27   3.159237E-28   8.227207E-29   8.455793E-30   4.447542E-31  -2.008821E-32  -7.344451E-33  -8.241152E-34  -4.943009E-35   9.504056E-37   6.439621E-37   8.084932E-38   1.603291E-38   0.000000E+00
  -0.000000E+00  -0.000000E+00  -0.000000E+00  -0.000000E+00  -0.000000E+00   0.000000E+00   0.000000E+00   0.000000E+00   0.000000E+00  -0.000000E+00  -0.000000E+00  -0.000000E+00  -0.000000E+00   0.000000E+00   0.000000E+00   0.000000E+00   0.000000E+00   0.000000E+00  -0.000000E+00  -0.000000E+00  -0.000000E+00  -0.000000E+00   0.000000E+00  -0.000000E+00   0.000000E+00   0.000000E+00  -0.000000E+00  -0.000000E+00  -0.000000E+00   0.000000E+00   0.000000E+00  -0.000000E+00  -0.000000E+00  -0.000000E+00   0.000000E+00   0.000000E+00  -0.000000E+00  -0.000000E+00  -0.000000E+00  -0.000000E+00  -0.000000E+00   0.000000E+00   0.000000E+00  -0.000000E+00  -0.000000E+00   0.000000E+00   0.000000E+00   1.401298E-45  -0.000000E+00  -0.000000E+00   0.000000E+00   0.000000E+00  -0.000000E+00   0.000000E+00  -0.000000E+00  -0.000000E+00  -0.000000E+00   0.000000E+00  -0.000000E+00   0.000000E+00  -1.401298E-45  -0.000000E+00  -0.000000E+00  -0.000000E+00  -0.000000E+00   0.000000E+00   0.000000E+00  -0.000000E+00   0.000000E+00  -0.000000E+00  -0.000000E+00  -0.000000E+00  -0.000000E+00  -0.000000E+00  -0.000000E+00  -8.407791E-45   3.222986E-44   5.324934E-44   4.119817E-43   4.437912E-42  -2.121244E-40  -2.714898E-39  -1.856635E-38   1.816638E-38   2.035306E-36   3.006450E-35   1.531695E-34   1.856418E-34  -1.691558E-32  -2.022768E-31  -1.651072E-30   2.641160E-29   3.878161E-29  -1.113086E-28   1.155678E-28   3.538700E-28  -5.818995E-27  -1.179276E-25   1.619000E-24   5.911872E-25  -4.508499E-24   9.926868E-24   2.170373E-22  -1.128633E-22   8.443935E-23  -1.644181E-20   4.687150E-20   4.014642E-20  -3.453420E-20  -1.700484E-18   8.667454E-19  -1.562634E-18   6.107315E-18   9.220453E-17  -2.260915E-16   1.512658E-15  -3.330424E-15   2.096271E-16   3.063449E-17   2.425814E-18   3.983269E-20  -4.999739E-21  -1.426228E-19   3.692733E-20   1.201397E-21  -2.658578E-23  -2.930567E-22   4.637250E-21  -7.387709E-23   7.637700E-24   1.078412E-23   9.993347E-23  -3.346256E-22  -2.044561E-22   5.171057E-22   6.797337E-21   5.563218E-22  -7.447308E-22   3.103766E-21  -9.625518E-21   1.185403E-22   1.797905E-22   1.334865E-21   3.207012E-22   1.697107E-22   1.869581E-24  -1.520170E-24  -1.196974E-25  -1.094049E-25   7.297898E-25  -1.593791E-25   1.644571E-23  -4.230244E-25  -2.698620E-25  -2.300384E-25   1.023056E-25   2.957383E-26   1.045440E-25  -1.574356E-25  -2.802607E-25   1.191152E-25   6.505184E-26  -1.476996E-26  -3.969994E-27   2.946850E-27  -2.822625E-27   3.307304E-27   1.959042E-25   2.696724E-24   1.234939E-23  -3.848649E-23   3.554941E-24   2.038900E-21   6.223847E-21  -8.115176E-20   8.176361E-22  -7.751099E-21  -9.402157E-21   1.032833E-21  -2.386778E-21  -6.136472E-22  -3.336771E-21   5.208907E-22  -7.473363E-23  -1.546426E-23  -1.460806E-24  -6.514426E-26   5.384912E-27   1.402326E-27   1.441288E-28   7.580824E-30  -3.424031E-31  -1.251860E-31  -1.404702E-32  -8.425347E-34   1.619964E-35   1.097632E-35   1.378075E-36   2.732805E-37   0.000000E+00
  -0.000000E+00  -0.000000E+00  -0.000000E+00  -0.000000E+00  -0.000000E+00   0.000000E+00   0.000000E+00   0.000000E+00   0.000000E+00  -0.000000E+00  -0.000000E+00  -0.000000E+00  -0.000000E+00   0.000000E+00   0.000000E+00   0.000000E+00   0.000000E+00   0.000000E+00  -0.000000E+00  -0.000000E+00  -0.000000E+00  -0.000000E+00   0.000000E+00  -0.000000E+00   0.000000E+00   0.000000E+00  -0.000000E+00  -0.000000E+00  -0.000000E+00   0.000000E+00   0.000000E+00  -0.000000E+00  -0.000000E+00  -0.000000E+00   0.000000E+00   0.000000E+00  -0.000000E+00  -0.000000E+00  -1.401298E-45  -0.000000E+00  -0.000000E+00   0.000000E+00   0.000000E+00  -0.000000E+00  -0.000000E+00   0.000000E+00   0.000000E+00   2.662467E-44  -2.802597E-45  -0.000000E+00   0.000000E+00   0.000000E+00  -0.000000E+00   0.000000E+00  -0.000000E+00  -0.000000E+00  -0.000000E+00   0.000000E+00  -1.401298E-45   0.000000E+00  -1.541428E-44  -9.809089E-45  -0.000000E+00  -0.000000E+00  -0.000000E+00   0.000000E+00   0.000000E+00  -0.000000E+00   0.000000E+00  -0.000000E+00  -0.000000E+00  -0.000000E+00  -0.000000E+00  -0.000000E+00  -1.401298E-45  -1.275182E-43   5.394999E-43   8.744102E-43   6.804705E-42   7.338740E-41  -3.507323E-39  -4.488886E-38  -3.069812E-37   3.003679E-37   3.365230E-35   4.970948E-34   2.532546E-33   3.069453E-33  -2.796868E-31  -3.344500E-30  -2.729927E-29   4.366967E-28   6.412257E-28  -1.840406E-27   1.910830E-27   5.850984E-27  -9.621287E-26  -1.949847E-24   2.676900E-23   9.774850E-24  -7.454477E-23   1.641336E-22   3.588555E-21  -1.866113E-21   1.396143E-21  -2.718535E-19   7.749863E-19   6.637919E-19  -5.709979E-19  -2.811626E-17   1.433101E-17  -2.583701E-17   1.009800E-16   1.524535E-15  -3.738259E-15   2.501071E-14  -5.506615E-14   3.466031E-15   5.065190E-16   4.010907E-17   6.586046E-19  -8.266705E-20  -2.358165E-18   6.105667E-19   1.986422E-20  -4.395766E-22  -4.845480E-21   7.667357E-20  -1.221504E-21   1.262838E-22   1.783076E-22   1.652327E-21  -5.532791E-21  -3.380533E-21   8.549967E-21   1.123890E-19   9.198377E-21  -1.231358E-20   5.131852E-20  -1.591509E-19   1.959978E-21   2.972706E-21   2.207102E-20   5.302561E-21   2.806043E-21   3.091216E-23  -2.513491E-23  -1.979110E-24  -1.808930E-24   1.206654E-23  -2.635218E-24   2.719178E-22  -6.994401E-24  -4.461973E-24  -3.803518E-24   1.691549E-24   4.889819E-25   1.728560E-24  -2.603084E-24  -4.633907E-24   1.969484E-24   1.075585E-24  -2.442105E-25  -6.564097E-26   4.872402E-26  -4.667005E-26   5.468388E-26   3.239134E-24   4.458837E-23   2.041882E-22  -6.363461E-22   5.877837E-23   3.371174E-20   1.029068E-19  -1.341785E-18   1.351902E-20  -1.281588E-19  -1.554578E-19   1.707715E-20  -3.946364E-20  -1.014621E-20  -5.517109E-20   8.612550E-21  -1.235666E-21  -2.556903E-22  -2.415337E-23  -1.077113E-24   8.903561E-26   2.318644E-26   2.383065E-27   1.253434E-28  -5.661387E-30  -2.069860E-30  -2.322573E-31  -1.393070E-32   2.678493E-34   1.814855E-34   2.278546E-35   4.518495E-36   0.000000E+00
  -0.000000E+00  -0.000000E+00  -0.000000E+00  -0.000000E+00  -0.000000E+00   0.000000E+00   0.000000E+00   0.000000E+00   0.000000E+00  -0.000000E+00  -0.000000E+00  -0.000000E+00  -0.000000E+00   0.000000E+00   0.000000E+00   0.000000E+00   0.000000E+00   0.000000E+00  -0.000000E+00  -0.000000E+00  -0.000000E+00  -0.000000E+00   0.000000E+00  -0.000000E+00   0.000000E+00   0.000000E+00  -0.000000E+00  -0.000000E+00  -0.000000E+00   0.000000E+00   0.000000E+00  -0.000000E+00  -0.000000E+00  -0.000000E+00   0.000000E+00   0.000000E+00  -0.000000E+00  -1.401298E-45  -1.401298E-44  -5.605194E-45  -1.401298E-45   0.000000E+00   1.401298E-45  -2.802597E-45  -4.203895E-45   4.203895E-45   8.407791E-45   4.315999E-43  -5.044674E-44  -2.802597E-45   0.000000E+00   0.000000E+00  -0.000000E+00   0.000000E+00  -1.401298E-45  -2.802597E-45  -2.802597E-45   7.006492E-45  -1.821688E-44   7.006492E-45  -2.494311E-43  -1.555441E-43  -1.401298E-45  -1.401298E-45  -1.401298E-45   1.401298E-45   0.000000E+00  -0.000000E+00   0.000000E+00  -1.401298E-45  -1.401298E-45  -1.401298E-45  -2.802597E-45  -1.401298E-45  -2.662467E-44  -2.062711E-42   8.728688E-42   1.413630E-41   1.099907E-40   1.186111E-39  -5.668612E-38  -7.255035E-37  -4.961496E-36   4.854611E-36   5.438958E-34   8.034153E-33   4.093156E-32   4.960915E-32  -4.520358E-30  -5.405453E-29  -4.412167E-28   7.057986E-27   1.036363E-26  -2.974504E-26   3.088324E-26   9.456486E-26  -1.555013E-24  -3.151385E-23   4.326463E-22   1.579832E-22  -1.204809E-21   2.652762E-21   5.799900E-20  -3.016052E-20   2.256477E-20  -4.393754E-18   1.252550E-17   1.072835E-17  -9.228591E-18  -4.544211E-16   2.316208E-16  -4.175834E-16   1.632061E-15   2.463986E-14  -6.041856E-14   4.042284E-13  -8.899910E-13   5.601875E-14   8.186468E-15   6.482515E-16   1.064451E-17  -1.336083E-18  -3.811317E-17   9.868110E-18   3.210498E-19  -7.104532E-21  -7.831370E-20   1.239215E-18  -1.974221E-20   2.041026E-21   2.881846E-21   2.670527E-20  -8.942216E-20  -5.463691E-20   1.381864E-19   1.816456E-18   1.486662E-19  -1.990148E-19   8.294210E-19  -2.572232E-18   3.167758E-20   4.804552E-20   3.567166E-19   8.570113E-20   4.535188E-20   4.996090E-22  -4.062359E-22  -3.198681E-23  -2.923632E-23   1.950221E-22  -4.259097E-23   4.394794E-21  -1.130450E-22  -7.211537E-23  -6.147327E-23   2.733918E-23   7.903030E-24   2.793735E-23  -4.207160E-23  -7.489421E-23   3.183122E-23   1.738384E-23  -3.946983E-24  -1.060904E-24   7.874881E-25  -7.542914E-25   8.838126E-25   5.235159E-23   7.206469E-22   3.300133E-21  -1.028476E-20   9.499886E-22   5.448564E-19   1.663202E-18  -2.168623E-17   2.184973E-19  -2.071330E-18  -2.512543E-18   2.760045E-19  -6.378198E-19  -1.639853E-19  -8.916871E-19   1.391979E-19  -1.997111E-20  -4.132521E-21  -3.903719E-22  -1.740853E-23   1.439013E-24   3.747442E-25   3.851561E-26   2.025828E-27  -9.150056E-29  -3.345351E-29  -3.753794E-30  -2.251510E-31   4.329039E-33   2.933207E-33   3.682636E-34   7.302889E-35   0.000000E+00