# LPF package for  MODFLOW-2005, generated by Flopy.
         0    -1E+30         0  
         0
         0
   1.000000E+00
         0
         0
INTERNAL               1 (200E15.6) -1 #hk layer 1                    
   3.962798E+00   3.935276E+00   3.904627E+00   3.862616E+00   3.833866E+00   3.813430E+00   3.802062E+00   3.789310E+00   3.787687E+00   3.761420E+00   3.731980E+00   3.688951E+00   3.641716E+00   3.585303E+00   3.527702E+00   3.488792E+00   3.471278E+00   3.475590E+00   3.487847E+00   3.514948E+00   3.555459E+00   3.610181E+00   3.676205E+00   3.769711E+00   3.856397E+00   3.942588E+00   4.023968E+00   4.102556E+00   4.173319E+00   4.228833E+00   4.263442E+00   4.278139E+00   4.262474E+00   4.208776E+00   4.144179E+00   4.061121E+00   3.983758E+00   3.902617E+00   3.837469E+00   3.780576E+00   3.734542E+00   3.705207E+00   3.677847E+00   3.641655E+00   3.612335E+00   3.596398E+00   3.598024E+00   3.596578E+00   3.597183E+00   3.587801E+00   3.566005E+00   3.538595E+00   3.502728E+00   3.461035E+00   3.425287E+00   3.380533E+00   3.348214E+00   3.330777E+00   3.342736E+00   3.384911E+00   3.438010E+00   3.508762E+00   3.589086E+00   3.667625E+00   3.724976E+00   3.774232E+00   3.803799E+00   3.824018E+00   3.825954E+00   3.806006E+00   3.768584E+00   3.724205E+00   3.683839E+00   3.658787E+00   3.654686E+00   3.647124E+00   3.655387E+00   3.651693E+00   3.644501E+00   3.635078E+00   3.635676E+00   3.623657E+00   3.611320E+00   3.599371E+00   3.582974E+00   3.572124E+00   3.569904E+00   3.582228E+00   3.598202E+00   3.649006E+00   3.714887E+00   3.790903E+00   3.863286E+00   3.918331E+00   3.938064E+00   3.934296E+00   3.911809E+00   3.868190E+00   3.820231E+00   3.755289E+00   3.688869E+00   3.614437E+00   3.538898E+00   3.483603E+00   3.436872E+00   3.398678E+00   3.375503E+00   3.354401E+00   3.352449E+00   3.340926E+00   3.328658E+00   3.308968E+00   3.299383E+00   3.305065E+00   3.313910E+00   3.344065E+00   3.403467E+00   3.481964E+00   3.577465E+00   3.681925E+00   3.773156E+00   3.873395E+00   3.963015E+00   4.047318E+00   4.127017E+00   4.192503E+00   4.268082E+00   4.325021E+00   4.356620E+00   4.372882E+00   4.360046E+00   4.335392E+00   4.308180E+00   4.267397E+00   4.212784E+00   4.168871E+00   4.110876E+00   4.072155E+00   4.050264E+00   4.051401E+00   4.074102E+00   4.106668E+00   4.158653E+00   4.213174E+00   4.279380E+00   4.348979E+00   4.431276E+00   4.525084E+00   4.590633E+00   4.616878E+00   4.595813E+00   4.545337E+00   4.457891E+00   4.370964E+00   4.269286E+00   4.164042E+00   4.064060E+00   3.962137E+00   3.866517E+00   3.760717E+00   3.673515E+00   3.573009E+00   3.493752E+00   3.439930E+00   3.401786E+00   3.385005E+00   3.389045E+00   3.415116E+00   3.461311E+00   3.544818E+00   3.647677E+00   3.756782E+00   3.870551E+00   3.969576E+00   4.043471E+00   4.094755E+00   4.129375E+00   4.160800E+00   4.187323E+00   4.202385E+00   4.222209E+00   4.238305E+00   4.251701E+00   4.250406E+00   4.238935E+00   4.202252E+00   4.153185E+00   4.090057E+00   4.032212E+00   3.993801E+00   3.975747E+00   3.977588E+00   3.985508E+00   4.000529E+00   4.005347E+00   4.010376E+00   4.010038E+00   3.991257E+00   3.983231E+00   3.979309E+00
   3.931102E+00   3.887744E+00   3.829803E+00   3.762613E+00   3.694545E+00   3.655502E+00   3.623489E+00   3.599696E+00   3.585415E+00   3.568994E+00   3.518119E+00   3.458875E+00   3.366213E+00   3.277592E+00   3.189013E+00   3.124326E+00   3.088105E+00   3.089448E+00   3.108863E+00   3.145921E+00   3.206901E+00   3.294760E+00   3.408805E+00   3.546089E+00   3.701214E+00   3.869316E+00   4.044112E+00   4.212812E+00   4.363786E+00   4.476732E+00   4.542685E+00   4.578489E+00   4.539467E+00   4.450073E+00   4.313998E+00   4.167149E+00   4.017150E+00   3.866731E+00   3.721546E+00   3.617558E+00   3.532408E+00   3.477906E+00   3.426945E+00   3.378464E+00   3.327224E+00   3.299689E+00   3.291678E+00   3.285781E+00   3.283088E+00   3.269692E+00   3.242150E+00   3.198289E+00   3.152101E+00   3.091758E+00   3.019348E+00   2.953153E+00   2.904875E+00   2.881513E+00   2.897038E+00   2.956041E+00   3.048490E+00   3.177645E+00   3.316650E+00   3.439567E+00   3.541060E+00   3.620356E+00   3.659893E+00   3.670943E+00   3.654540E+00   3.607758E+00   3.536780E+00   3.463014E+00   3.394792E+00   3.346550E+00   3.318179E+00   3.305654E+00   3.306672E+00   3.317157E+00   3.330629E+00   3.344527E+00   3.346036E+00   3.339528E+00   3.320152E+00   3.291425E+00   3.255427E+00   3.224005E+00   3.214183E+00   3.223175E+00   3.256881E+00   3.326706E+00   3.449548E+00   3.571602E+00   3.708085E+00   3.808180E+00   3.860913E+00   3.865954E+00   3.817566E+00   3.748273E+00   3.659042E+00   3.553306E+00   3.436311E+00   3.309489E+00   3.182973E+00   3.082218E+00   3.002913E+00   2.939721E+00   2.899186E+00   2.875742E+00   2.858008E+00   2.842775E+00   2.823272E+00   2.810662E+00   2.814658E+00   2.824157E+00   2.855906E+00   2.913395E+00   2.997106E+00   3.108509E+00   3.251846E+00   3.408309E+00   3.571050E+00   3.748590E+00   3.919993E+00   4.086927E+00   4.236274E+00   4.381703E+00   4.511543E+00   4.607932E+00   4.648488E+00   4.658921E+00   4.638926E+00   4.593404E+00   4.518861E+00   4.415390E+00   4.309289E+00   4.212235E+00   4.139826E+00   4.086429E+00   4.073496E+00   4.088343E+00   4.138708E+00   4.222550E+00   4.297221E+00   4.406842E+00   4.525845E+00   4.681029E+00   4.854728E+00   5.038054E+00   5.182779E+00   5.230561E+00   5.195569E+00   5.072777E+00   4.905307E+00   4.710518E+00   4.497464E+00   4.284711E+00   4.077249E+00   3.883543E+00   3.689436E+00   3.513058E+00   3.339009E+00   3.194813E+00   3.066931E+00   2.986033E+00   2.935582E+00   2.910739E+00   2.918977E+00   2.971525E+00   3.068199E+00   3.207875E+00   3.373879E+00   3.558123E+00   3.746469E+00   3.909637E+00   4.045614E+00   4.142274E+00   4.213288E+00   4.270706E+00   4.313082E+00   4.347951E+00   4.379230E+00   4.414603E+00   4.424938E+00   4.420168E+00   4.382061E+00   4.328791E+00   4.247931E+00   4.153258E+00   4.068690E+00   4.005262E+00   4.004383E+00   4.019275E+00   4.045283E+00   4.059989E+00   4.058363E+00   4.055092E+00   4.037093E+00   4.011917E+00   3.986807E+00   3.982365E+00
   3.911451E+00   3.831517E+00   3.749124E+00   3.665326E+00   3.598392E+00   3.527454E+00   3.481987E+00   3.448068E+00   3.426233E+00   3.389698E+00   3.342143E+00   3.261436E+00   3.174487E+00   3.070441E+00   2.974518E+00   2.897196E+00   2.853212E+00   2.845896E+00   2.866125E+00   2.912392E+00   2.976364E+00   3.079036E+00   3.215603E+00   3.387373E+00   3.576806E+00   3.793137E+00   4.037737E+00   4.276344E+00   4.495195E+00   4.657250E+00   4.768138E+00   4.801326E+00   4.762791E+00   4.652742E+00   4.500720E+00   4.293191E+00   4.082628E+00   3.863534E+00   3.680389E+00   3.529022E+00   3.416394E+00   3.325668E+00   3.259459E+00   3.194810E+00   3.127206E+00   3.063937E+00   3.039292E+00   3.014221E+00   3.012239E+00   3.011173E+00   3.004599E+00   2.979392E+00   2.953270E+00   2.897944E+00   2.834844E+00   2.772774E+00   2.717976E+00   2.692019E+00   2.709885E+00   2.779299E+00   2.893803E+00   3.038678E+00   3.196999E+00   3.347828E+00   3.465253E+00   3.536667E+00   3.565550E+00   3.554821E+00   3.505391E+00   3.429642E+00   3.323688E+00   3.222571E+00   3.129662E+00   3.062910E+00   3.020949E+00   3.000665E+00   3.008553E+00   3.033326E+00   3.074433E+00   3.110928E+00   3.130877E+00   3.131274E+00   3.116456E+00   3.073995E+00   3.034177E+00   2.993188E+00   2.964873E+00   2.957681E+00   2.984517E+00   3.066768E+00   3.196368E+00   3.362196E+00   3.523893E+00   3.667914E+00   3.738857E+00   3.748534E+00   3.707861E+00   3.629872E+00   3.533920E+00   3.403617E+00   3.256047E+00   3.102094E+00   2.953340E+00   2.817539E+00   2.714676E+00   2.634087E+00   2.576970E+00   2.543919E+00   2.526131E+00   2.512518E+00   2.502595E+00   2.501382E+00   2.520701E+00   2.552612E+00   2.595477E+00   2.672077E+00   2.769232E+00   2.892580E+00   3.056093E+00   3.236993E+00   3.429850E+00   3.652827E+00   3.877979E+00   4.097729E+00   4.299311E+00   4.472147E+00   4.632997E+00   4.738346E+00   4.800254E+00   4.799221E+00   4.754555E+00   4.666344E+00   4.541227E+00   4.402748E+00   4.262118E+00   4.144661E+00   4.046718E+00   4.001803E+00   3.997429E+00   4.042611E+00   4.127797E+00   4.226732E+00   4.359228E+00   4.514890E+00   4.710761E+00   4.934606E+00   5.204883E+00   5.455262E+00   5.643308E+00   5.717296E+00   5.675257E+00   5.512717E+00   5.265762E+00   4.981378E+00   4.677484E+00   4.377732E+00   4.084539E+00   3.800890E+00   3.528838E+00   3.281053E+00   3.065315E+00   2.875144E+00   2.742881E+00   2.651799E+00   2.599986E+00   2.586445E+00   2.616510E+00   2.692488E+00   2.815799E+00   2.983561E+00   3.191329E+00   3.407980E+00   3.631586E+00   3.835733E+00   4.015962E+00   4.145788E+00   4.243437E+00   4.309259E+00   4.361316E+00   4.399902E+00   4.422912E+00   4.430420E+00   4.437363E+00   4.415637E+00   4.374220E+00   4.306619E+00   4.231955E+00   4.167703E+00   4.108001E+00   4.083678E+00   4.096057E+00   4.141023E+00   4.191810E+00   4.206775E+00   4.196709E+00   4.158479E+00   4.116851E+00   4.076234E+00   4.039393E+00   4.009687E+00
   3.896381E+00   3.808058E+00   3.706646E+00   3.617097E+00   3.544008E+00   3.483264E+00   3.426247E+00   3.386118E+00   3.348324E+00   3.304750E+00   3.237466E+00   3.161898E+00   3.060277E+00   2.958525E+00   2.860967E+00   2.788109E+00   2.737970E+00   2.722057E+00   2.738818E+00   2.785487E+00   2.846906E+00   2.944098E+00   3.081077E+00   3.263649E+00   3.476157E+00   3.717968E+00   3.983356E+00   4.264638E+00   4.516463E+00   4.716323E+00   4.850411E+00   4.915841E+00   4.877947E+00   4.797131E+00   4.627550E+00   4.408072E+00   4.159898E+00   3.904830E+00   3.671684E+00   3.492598E+00   3.348068E+00   3.229304E+00   3.124930E+00   3.028614E+00   2.944000E+00   2.873269E+00   2.827329E+00   2.791586E+00   2.786748E+00   2.800237E+00   2.825064E+00   2.848036E+00   2.864295E+00   2.863517E+00   2.830246E+00   2.784889E+00   2.741679E+00   2.726161E+00   2.748924E+00   2.821600E+00   2.941225E+00   3.095572E+00   3.256167E+00   3.401374E+00   3.504426E+00   3.551014E+00   3.540821E+00   3.482926E+00   3.396693E+00   3.283418E+00   3.157687E+00   3.024658E+00   2.914269E+00   2.824760E+00   2.781104E+00   2.771912E+00   2.795090E+00   2.835552E+00   2.895326E+00   2.947169E+00   2.991856E+00   3.007869E+00   2.995622E+00   2.954919E+00   2.893990E+00   2.836815E+00   2.786614E+00   2.764240E+00   2.783864E+00   2.851835E+00   2.984809E+00   3.145433E+00   3.331527E+00   3.491992E+00   3.600882E+00   3.640496E+00   3.616572E+00   3.548748E+00   3.453834E+00   3.323804E+00   3.169301E+00   2.995988E+00   2.833058E+00   2.695072E+00   2.574304E+00   2.488234E+00   2.434352E+00   2.393937E+00   2.381330E+00   2.367295E+00   2.370895E+00   2.385449E+00   2.416163E+00   2.466402E+00   2.530200E+00   2.616467E+00   2.714621E+00   2.835735E+00   2.982051E+00   3.155087E+00   3.350276E+00   3.571338E+00   3.813349E+00   4.059073E+00   4.280570E+00   4.464034E+00   4.608619E+00   4.703793E+00   4.741264E+00   4.728626E+00   4.661856E+00   4.551280E+00   4.399766E+00   4.235861E+00   4.082150E+00   3.944453E+00   3.856293E+00   3.807152E+00   3.816125E+00   3.887450E+00   4.004931E+00   4.149753E+00   4.328932E+00   4.553332E+00   4.811150E+00   5.114304E+00   5.422103E+00   5.737206E+00   5.978756E+00   6.084811E+00   6.043939E+00   5.855873E+00   5.551243E+00   5.188610E+00   4.810354E+00   4.451979E+00   4.092641E+00   3.748532E+00   3.424951E+00   3.138344E+00   2.889157E+00   2.700404E+00   2.550519E+00   2.444958E+00   2.391344E+00   2.380094E+00   2.412599E+00   2.497376E+00   2.633860E+00   2.830993E+00   3.049750E+00   3.291725E+00   3.531735E+00   3.766349E+00   3.957940E+00   4.113032E+00   4.209292E+00   4.281565E+00   4.319182E+00   4.339366E+00   4.337372E+00   4.334904E+00   4.303018E+00   4.280940E+00   4.231549E+00   4.189598E+00   4.155420E+00   4.129960E+00   4.139052E+00   4.185565E+00   4.259233E+00   4.341353E+00   4.394463E+00   4.416079E+00   4.386517E+00   4.323736E+00   4.237386E+00   4.156332E+00   4.092181E+00   4.036643E+00
   3.901757E+00   3.809831E+00   3.713065E+00   3.630241E+00   3.558544E+00   3.492989E+00   3.438079E+00   3.386609E+00   3.350061E+00   3.288747E+00   3.216396E+00   3.121605E+00   3.023499E+00   2.922734E+00   2.831389E+00   2.753239E+00   2.701830E+00   2.678854E+00   2.699884E+00   2.742624E+00   2.817666E+00   2.926501E+00   3.056169E+00   3.230128E+00   3.438172E+00   3.675238E+00   3.932346E+00   4.187391E+00   4.435069E+00   4.641652E+00   4.792090E+00   4.872282E+00   4.908734E+00   4.864697E+00   4.746861E+00   4.554325E+00   4.324243E+00   4.030620E+00   3.759513E+00   3.509150E+00   3.314516E+00   3.157081E+00   3.023134E+00   2.904192E+00   2.800122E+00   2.721822E+00   2.671597E+00   2.639460E+00   2.637058E+00   2.670687E+00   2.739054E+00   2.823254E+00   2.910338E+00   2.960819E+00   2.976362E+00   2.960478E+00   2.945636E+00   2.944971E+00   2.983006E+00   3.057623E+00   3.184397E+00   3.341307E+00   3.498570E+00   3.626913E+00   3.702729E+00   3.704914E+00   3.642915E+00   3.534472E+00   3.393626E+00   3.237196E+00   3.073594E+00   2.923591E+00   2.787857E+00   2.690739E+00   2.641190E+00   2.635700E+00   2.664731E+00   2.728790E+00   2.799474E+00   2.865670E+00   2.917639E+00   2.930837E+00   2.905717E+00   2.851313E+00   2.781462E+00   2.704762E+00   2.636531E+00   2.599162E+00   2.599131E+00   2.653795E+00   2.769732E+00   2.935732E+00   3.119224E+00   3.298703E+00   3.442198E+00   3.518275E+00   3.534256E+00   3.508673E+00   3.444792E+00   3.340843E+00   3.192828E+00   3.013187E+00   2.849611E+00   2.706908E+00   2.596466E+00   2.519099E+00   2.464659E+00   2.428682E+00   2.405007E+00   2.407218E+00   2.422561E+00   2.448907E+00   2.487026E+00   2.553607E+00   2.622128E+00   2.698483E+00   2.790028E+00   2.883435E+00   3.000751E+00   3.141317E+00   3.320099E+00   3.524249E+00   3.753756E+00   3.991819E+00   4.188025E+00   4.355625E+00   4.461347E+00   4.499633E+00   4.505469E+00   4.484815E+00   4.418802E+00   4.309531E+00   4.154444E+00   4.001535E+00   3.840336E+00   3.701739E+00   3.600989E+00   3.565694E+00   3.584838E+00   3.674470E+00   3.811431E+00   4.004004E+00   4.232853E+00   4.505514E+00   4.816899E+00   5.151843E+00   5.489635E+00   5.837199E+00   6.113306E+00   6.268763E+00   6.251208E+00   6.081826E+00   5.759065E+00   5.355339E+00   4.927832E+00   4.504622E+00   4.098924E+00   3.720232E+00   3.368458E+00   3.066158E+00   2.810900E+00   2.600848E+00   2.445262E+00   2.332112E+00   2.270435E+00   2.254662E+00   2.288029E+00   2.376000E+00   2.523111E+00   2.715144E+00   2.944599E+00   3.190583E+00   3.443005E+00   3.688727E+00   3.913106E+00   4.079701E+00   4.192547E+00   4.246444E+00   4.279241E+00   4.268247E+00   4.247756E+00   4.206554E+00   4.172602E+00   4.135225E+00   4.108120E+00   4.081450E+00   4.088755E+00   4.123067E+00   4.193965E+00   4.301461E+00   4.424201E+00   4.541730E+00   4.623580E+00   4.634418E+00   4.598416E+00   4.523000E+00   4.414899E+00   4.300467E+00   4.189319E+00   4.089412E+00
   3.927699E+00   3.860481E+00   3.788433E+00   3.722966E+00   3.643448E+00   3.574771E+00   3.506854E+00   3.459817E+00   3.412275E+00   3.347383E+00   3.262719E+00   3.164031E+00   3.052828E+00   2.956187E+00   2.864883E+00   2.791429E+00   2.733387E+00   2.716297E+00   2.734743E+00   2.797955E+00   2.881633E+00   2.997591E+00   3.127789E+00   3.292812E+00   3.480140E+00   3.680931E+00   3.901161E+00   4.137788E+00   4.358121E+00   4.558971E+00   4.715956E+00   4.837047E+00   4.928877E+00   4.954620E+00   4.886776E+00   4.749482E+00   4.529421E+00   4.227436E+00   3.908751E+00   3.604741E+00   3.351544E+00   3.145133E+00   2.971332E+00   2.837553E+00   2.728750E+00   2.643212E+00   2.594217E+00   2.572967E+00   2.600154E+00   2.667391E+00   2.776507E+00   2.913750E+00   3.051880E+00   3.166284E+00   3.228280E+00   3.264082E+00   3.281388E+00   3.301295E+00   3.351084E+00   3.445738E+00   3.576590E+00   3.732290E+00   3.894264E+00   4.002474E+00   4.042388E+00   3.995134E+00   3.872421E+00   3.710630E+00   3.517469E+00   3.312852E+00   3.124841E+00   2.945876E+00   2.802791E+00   2.693918E+00   2.638363E+00   2.633584E+00   2.658924E+00   2.716094E+00   2.789237E+00   2.846869E+00   2.889057E+00   2.889822E+00   2.852313E+00   2.789485E+00   2.706341E+00   2.613547E+00   2.526489E+00   2.465307E+00   2.452327E+00   2.497900E+00   2.601793E+00   2.760898E+00   2.955932E+00   3.156360E+00   3.335238E+00   3.460841E+00   3.530692E+00   3.550674E+00   3.522449E+00   3.436936E+00   3.299742E+00   3.144123E+00   2.984686E+00   2.847964E+00   2.744025E+00   2.675690E+00   2.636392E+00   2.606448E+00   2.595125E+00   2.592608E+00   2.609724E+00   2.639786E+00   2.691735E+00   2.751176E+00   2.813380E+00   2.871034E+00   2.921689E+00   2.981315E+00   3.060881E+00   3.169697E+00   3.313726E+00   3.483225E+00   3.679648E+00   3.872138E+00   4.036610E+00   4.143170E+00   4.185514E+00   4.176309E+00   4.163426E+00   4.129850E+00   4.091929E+00   4.017694E+00   3.917284E+00   3.791181E+00   3.648029E+00   3.509035E+00   3.404763E+00   3.358108E+00   3.388776E+00   3.479708E+00   3.632228E+00   3.854080E+00   4.107832E+00   4.400901E+00   4.727179E+00   5.081708E+00   5.440305E+00   5.796865E+00   6.092235E+00   6.274830E+00   6.310339E+00   6.158067E+00   5.832227E+00   5.429780E+00   4.998495E+00   4.558668E+00   4.133128E+00   3.731770E+00   3.385227E+00   3.080551E+00   2.821034E+00   2.606198E+00   2.436897E+00   2.311016E+00   2.233938E+00   2.206107E+00   2.235383E+00   2.314719E+00   2.455645E+00   2.643773E+00   2.873096E+00   3.127651E+00   3.388818E+00   3.644052E+00   3.860792E+00   4.029615E+00   4.142410E+00   4.208862E+00   4.219945E+00   4.215786E+00   4.167791E+00   4.131084E+00   4.083790E+00   4.053456E+00   4.027463E+00   4.034425E+00   4.065918E+00   4.130630E+00   4.237998E+00   4.388878E+00   4.553447E+00   4.688159E+00   4.764844E+00   4.776815E+00   4.729770E+00   4.655051E+00   4.559406E+00   4.432749E+00   4.291651E+00   4.145150E+00
   3.979157E+00   3.955937E+00   3.915891E+00   3.845915E+00   3.786990E+00   3.702005E+00   3.640128E+00   3.584970E+00   3.538296E+00   3.469587E+00   3.374387E+00   3.260515E+00   3.136876E+00   3.032455E+00   2.942870E+00   2.871525E+00   2.819542E+00   2.790770E+00   2.820024E+00   2.883464E+00   2.984372E+00   3.110340E+00   3.236943E+00   3.391409E+00   3.556704E+00   3.739906E+00   3.941183E+00   4.130446E+00   4.330718E+00   4.528629E+00   4.721869E+00   4.875959E+00   4.993741E+00   5.068000E+00   5.074625E+00   4.980492E+00   4.779288E+00   4.475962E+00   4.124378E+00   3.774125E+00   3.476746E+00   3.219817E+00   3.016743E+00   2.855603E+00   2.732019E+00   2.651114E+00   2.602597E+00   2.606765E+00   2.659235E+00   2.754005E+00   2.901843E+00   3.083541E+00   3.264615E+00   3.425262E+00   3.535550E+00   3.600572E+00   3.640634E+00   3.670604E+00   3.741886E+00   3.854997E+00   4.003159E+00   4.173638E+00   4.335755E+00   4.434359E+00   4.437391E+00   4.350961E+00   4.188341E+00   3.979433E+00   3.749070E+00   3.519850E+00   3.295171E+00   3.104033E+00   2.943364E+00   2.832249E+00   2.759448E+00   2.729878E+00   2.734847E+00   2.771336E+00   2.823311E+00   2.866173E+00   2.879714E+00   2.862077E+00   2.807827E+00   2.741209E+00   2.650695E+00   2.550303E+00   2.459646E+00   2.393636E+00   2.381941E+00   2.432203E+00   2.542557E+00   2.698948E+00   2.900475E+00   3.110290E+00   3.316185E+00   3.494125E+00   3.620723E+00   3.674052E+00   3.670576E+00   3.599568E+00   3.483942E+00   3.344036E+00   3.200380E+00   3.072144E+00   2.982196E+00   2.926279E+00   2.896065E+00   2.879734E+00   2.874290E+00   2.873564E+00   2.885794E+00   2.914804E+00   2.965778E+00   3.022972E+00   3.066777E+00   3.108861E+00   3.122584E+00   3.139399E+00   3.170903E+00   3.221385E+00   3.308759E+00   3.421158E+00   3.553539E+00   3.683241E+00   3.774619E+00   3.814344E+00   3.802669E+00   3.771531E+00   3.744145E+00   3.736818E+00   3.735571E+00   3.736101E+00   3.699152E+00   3.620130E+00   3.521159E+00   3.398139E+00   3.291703E+00   3.229561E+00   3.249619E+00   3.343443E+00   3.512706E+00   3.753651E+00   4.030392E+00   4.332712E+00   4.645690E+00   4.978531E+00   5.325649E+00   5.670242E+00   5.978129E+00   6.189968E+00   6.239657E+00   6.110210E+00   5.834540E+00   5.472478E+00   5.047110E+00   4.617167E+00   4.185046E+00   3.797805E+00   3.450993E+00   3.152920E+00   2.899132E+00   2.672696E+00   2.491925E+00   2.356781E+00   2.272221E+00   2.236063E+00   2.257702E+00   2.326848E+00   2.455164E+00   2.631693E+00   2.853684E+00   3.110731E+00   3.385565E+00   3.642670E+00   3.848317E+00   3.999476E+00   4.091776E+00   4.131260E+00   4.142285E+00   4.115911E+00   4.074350E+00   4.032317E+00   3.995277E+00   3.960230E+00   3.949873E+00   3.955421E+00   4.000961E+00   4.076444E+00   4.203396E+00   4.372694E+00   4.537638E+00   4.676124E+00   4.759647E+00   4.768713E+00   4.728519E+00   4.656275E+00   4.567144E+00   4.446758E+00   4.311430E+00   4.159085E+00
   4.043829E+00   4.084027E+00   4.071244E+00   4.037070E+00   3.960689E+00   3.884868E+00   3.813403E+00   3.759279E+00   3.692818E+00   3.603925E+00   3.479920E+00   3.350056E+00   3.221255E+00   3.114043E+00   3.027596E+00   2.968425E+00   2.913561E+00   2.900854E+00   2.924256E+00   2.988959E+00   3.088052E+00   3.214298E+00   3.341933E+00   3.478540E+00   3.627150E+00   3.797313E+00   3.965660E+00   4.147646E+00   4.341768E+00   4.551746E+00   4.756300E+00   4.954685E+00   5.105216E+00   5.217676E+00   5.244040E+00   5.180430E+00   5.009505E+00   4.736829E+00   4.381155E+00   4.004424E+00   3.652360E+00   3.364345E+00   3.127286E+00   2.945632E+00   2.820146E+00   2.736330E+00   2.707526E+00   2.717247E+00   2.787685E+00   2.909387E+00   3.080769E+00   3.272645E+00   3.458420E+00   3.628637E+00   3.748235E+00   3.826444E+00   3.874650E+00   3.941274E+00   4.036304E+00   4.175789E+00   4.366755E+00   4.566023E+00   4.748934E+00   4.855855E+00   4.847320E+00   4.723701E+00   4.529887E+00   4.300972E+00   4.056510E+00   3.805166E+00   3.577358E+00   3.378093E+00   3.201179E+00   3.065008E+00   2.967335E+00   2.905030E+00   2.885311E+00   2.879827E+00   2.895408E+00   2.904052E+00   2.899164E+00   2.858370E+00   2.797898E+00   2.723534E+00   2.642413E+00   2.554723E+00   2.475406E+00   2.430386E+00   2.431192E+00   2.496794E+00   2.613461E+00   2.781897E+00   2.975813E+00   3.193281E+00   3.412128E+00   3.608001E+00   3.763334E+00   3.837940E+00   3.842876E+00   3.784719E+00   3.672720E+00   3.546933E+00   3.416051E+00   3.298880E+00   3.212666E+00   3.164852E+00   3.149129E+00   3.143970E+00   3.148298E+00   3.160256E+00   3.179287E+00   3.207983E+00   3.260671E+00   3.311447E+00   3.340949E+00   3.346337E+00   3.325001E+00   3.288285E+00   3.258688E+00   3.245310E+00   3.260033E+00   3.298197E+00   3.354541E+00   3.410192E+00   3.442374E+00   3.444285E+00   3.415204E+00   3.382257E+00   3.375057E+00   3.390225E+00   3.444868E+00   3.502767E+00   3.535568E+00   3.519087E+00   3.461974E+00   3.369616E+00   3.284454E+00   3.227910E+00   3.243018E+00   3.322509E+00   3.491010E+00   3.741677E+00   4.034350E+00   4.338803E+00   4.636522E+00   4.931893E+00   5.240039E+00   5.557248E+00   5.846991E+00   6.059832E+00   6.143413E+00   6.063061E+00   5.840178E+00   5.501744E+00   5.102477E+00   4.675204E+00   4.269391E+00   3.885689E+00   3.559698E+00   3.277591E+00   3.027874E+00   2.793225E+00   2.600509E+00   2.452006E+00   2.351717E+00   2.308730E+00   2.313727E+00   2.382156E+00   2.499346E+00   2.668636E+00   2.871583E+00   3.122364E+00   3.384726E+00   3.627029E+00   3.814514E+00   3.943545E+00   4.011492E+00   4.035308E+00   4.031483E+00   3.989927E+00   3.960628E+00   3.940881E+00   3.914847E+00   3.893277E+00   3.875788E+00   3.878495E+00   3.914129E+00   3.979172E+00   4.088678E+00   4.229579E+00   4.382152E+00   4.501305E+00   4.581906E+00   4.594496E+00   4.576133E+00   4.527828E+00   4.442967E+00   4.360949E+00   4.255192E+00   4.139287E+00
   4.118072E+00   4.210601E+00   4.262451E+00   4.249746E+00   4.208216E+00   4.124870E+00   4.064916E+00   3.997137E+00   3.909022E+00   3.779419E+00   3.618602E+00   3.458858E+00   3.315259E+00   3.196625E+00   3.115631E+00   3.068108E+00   3.036088E+00   3.024336E+00   3.037437E+00   3.090981E+00   3.170449E+00   3.276149E+00   3.403478E+00   3.531876E+00   3.672287E+00   3.816420E+00   3.980008E+00   4.159544E+00   4.383417E+00   4.596346E+00   4.813796E+00   5.005924E+00   5.181561E+00   5.289435E+00   5.336078E+00   5.285427E+00   5.156456E+00   4.925402E+00   4.612009E+00   4.239846E+00   3.878081E+00   3.554847E+00   3.295698E+00   3.101724E+00   2.960351E+00   2.877748E+00   2.847413E+00   2.877137E+00   2.958140E+00   3.078691E+00   3.238602E+00   3.414074E+00   3.595758E+00   3.736676E+00   3.842980E+00   3.910191E+00   3.973580E+00   4.058245E+00   4.187679E+00   4.376442E+00   4.611790E+00   4.858986E+00   5.051166E+00   5.164422E+00   5.161597E+00   5.043749E+00   4.842429E+00   4.609817E+00   4.365458E+00   4.127077E+00   3.916173E+00   3.719458E+00   3.534191E+00   3.381239E+00   3.237534E+00   3.137248E+00   3.067187E+00   3.019187E+00   2.985654E+00   2.954822E+00   2.920075E+00   2.866582E+00   2.804046E+00   2.741713E+00   2.669051E+00   2.616448E+00   2.575851E+00   2.565771E+00   2.601192E+00   2.681794E+00   2.828887E+00   3.010718E+00   3.223095E+00   3.450076E+00   3.653602E+00   3.813014E+00   3.943134E+00   4.020488E+00   4.009113E+00   3.952370E+00   3.841681E+00   3.726430E+00   3.610196E+00   3.506473E+00   3.425925E+00   3.373502E+00   3.342994E+00   3.344153E+00   3.354672E+00   3.380292E+00   3.413849E+00   3.449991E+00   3.492885E+00   3.513710E+00   3.511821E+00   3.486721E+00   3.433444E+00   3.358994E+00   3.270856E+00   3.190413E+00   3.133143E+00   3.100689E+00   3.091650E+00   3.086556E+00   3.077630E+00   3.064604E+00   3.046373E+00   3.046667E+00   3.069944E+00   3.129114E+00   3.219844E+00   3.329788E+00   3.413281E+00   3.460735E+00   3.454017E+00   3.415813E+00   3.354624E+00   3.319721E+00   3.333878E+00   3.425091E+00   3.583478E+00   3.818155E+00   4.091064E+00   4.376230E+00   4.642760E+00   4.915130E+00   5.189183E+00   5.481879E+00   5.739305E+00   5.936929E+00   6.020957E+00   5.969275E+00   5.783248E+00   5.506568E+00   5.158196E+00   4.773693E+00   4.398374E+00   4.036720E+00   3.707358E+00   3.424749E+00   3.168762E+00   2.935776E+00   2.729108E+00   2.576302E+00   2.472376E+00   2.422603E+00   2.430381E+00   2.485051E+00   2.601493E+00   2.751672E+00   2.948521E+00   3.172579E+00   3.408767E+00   3.626574E+00   3.803787E+00   3.900920E+00   3.955192E+00   3.968553E+00   3.953291E+00   3.917745E+00   3.893098E+00   3.872844E+00   3.862390E+00   3.836379E+00   3.818221E+00   3.802710E+00   3.816120E+00   3.857652E+00   3.934268E+00   4.038091E+00   4.145531E+00   4.244228E+00   4.295689E+00   4.320994E+00   4.321029E+00   4.298436E+00   4.258508E+00   4.217349E+00   4.165504E+00   4.084861E+00