# LPF package for  MODFLOW-2005, generated by Flopy.
         0    -1E+30         0  
         0
         0
   1.000000E+00
         0
         0
INTERNAL               1 (200E15.6) -1 #hk layer 1                    
   3.962830E+00   3.935343E+00   3.904728E+00   3.862743E+00   3.834024E+00   3.813623E+00   3.802286E+00   3.789552E+00   3.787938E+00   3.761669E+00   3.732221E+00   3.689172E+00   3.641913E+00   3.585477E+00   3.527854E+00   3.488926E+00   3.471395E+00   3.475696E+00   3.487940E+00   3.515030E+00   3.555535E+00   3.610255E+00   3.676279E+00   3.769782E+00   3.856468E+00   3.942648E+00   4.024015E+00   4.102587E+00   4.173333E+00   4.228832E+00   4.263427E+00   4.278111E+00   4.262431E+00   4.208713E+00   4.144091E+00   4.061015E+00   3.983638E+00   3.902484E+00   3.837326E+00   3.780426E+00   3.734393E+00   3.705061E+00   3.677710E+00   3.641525E+00   3.612219E+00   3.596302E+00   3.597950E+00   3.596522E+00   3.597143E+00   3.587776E+00   3.565993E+00   3.538592E+00   3.502733E+00   3.461050E+00   3.425309E+00   3.380556E+00   3.348233E+00   3.330791E+00   3.342752E+00   3.384935E+00   3.438040E+00   3.508806E+00   3.589144E+00   3.667691E+00   3.725047E+00   3.774310E+00   3.803890E+00   3.824130E+00   3.826090E+00   3.806161E+00   3.768749E+00   3.724386E+00   3.684037E+00   3.659007E+00   3.654933E+00   3.647395E+00   3.655687E+00   3.652014E+00   3.644837E+00   3.635425E+00   3.636027E+00   3.623998E+00   3.611643E+00   3.599674E+00   3.583256E+00   3.572387E+00   3.570144E+00   3.582454E+00   3.598412E+00   3.649210E+00   3.715091E+00   3.791107E+00   3.863492E+00   3.918545E+00   3.938282E+00   3.934507E+00   3.912013E+00   3.868379E+00   3.820405E+00   3.755441E+00   3.689001E+00   3.614552E+00   3.539008E+00   3.483708E+00   3.436976E+00   3.398782E+00   3.375606E+00   3.354508E+00   3.352564E+00   3.341042E+00   3.328767E+00   3.309067E+00   3.299470E+00   3.305138E+00   3.313967E+00   3.344110E+00   3.403511E+00   3.482014E+00   3.577527E+00   3.682004E+00   3.773244E+00   3.873494E+00   3.963131E+00   4.047451E+00   4.127164E+00   4.192665E+00   4.268262E+00   4.325213E+00   4.356820E+00   4.373089E+00   4.360259E+00   4.335608E+00   4.308398E+00   4.267618E+00   4.213004E+00   4.169090E+00   4.111088E+00   4.072361E+00   4.050469E+00   4.051606E+00   4.074304E+00   4.106868E+00   4.158856E+00   4.213381E+00   4.279591E+00   4.349197E+00   4.431509E+00   4.525339E+00   4.590908E+00   4.617170E+00   4.596115E+00   4.545641E+00   4.458200E+00   4.371288E+00   4.269620E+00   4.164384E+00   4.064415E+00   3.962505E+00   3.866903E+00   3.761115E+00   3.673921E+00   3.573407E+00   3.494138E+00   3.440299E+00   3.402138E+00   3.385338E+00   3.389359E+00   3.415411E+00   3.461587E+00   3.545086E+00   3.647938E+00   3.757031E+00   3.870789E+00   3.969798E+00   4.043667E+00   4.094917E+00   4.129494E+00   4.160881E+00   4.187361E+00   4.202389E+00   4.222188E+00   4.238267E+00   4.251644E+00   4.250332E+00   4.238843E+00   4.202143E+00   4.153064E+00   4.089924E+00   4.032071E+00   3.993657E+00   3.975600E+00   3.977436E+00   3.985348E+00   4.000368E+00   4.005191E+00   4.010229E+00   4.009904E+00   3.991145E+00   3.983144E+00   3.979261E+00
   3.931163E+00   3.887869E+00   3.829991E+00   3.762855E+00   3.694838E+00   3.655846E+00   3.623876E+00   3.600117E+00   3.585856E+00   3.569435E+00   3.518539E+00   3.459265E+00   3.366560E+00   3.277896E+00   3.189273E+00   3.124545E+00   3.088294E+00   3.089615E+00   3.109016E+00   3.146060E+00   3.207031E+00   3.294888E+00   3.408931E+00   3.546214E+00   3.701332E+00   3.869428E+00   4.044209E+00   4.212892E+00   4.363844E+00   4.476765E+00   4.542687E+00   4.578459E+00   4.539396E+00   4.449957E+00   4.313844E+00   4.166962E+00   4.016936E+00   3.866492E+00   3.721285E+00   3.617284E+00   3.532137E+00   3.477648E+00   3.426707E+00   3.378251E+00   3.327033E+00   3.299531E+00   3.291554E+00   3.285693E+00   3.283030E+00   3.269662E+00   3.242144E+00   3.198305E+00   3.152133E+00   3.091800E+00   3.019389E+00   2.953192E+00   2.904908E+00   2.881542E+00   2.897069E+00   2.956081E+00   3.048547E+00   3.177722E+00   3.316751E+00   3.439690E+00   3.541200E+00   3.620514E+00   3.660077E+00   3.671154E+00   3.654780E+00   3.608030E+00   3.537074E+00   3.463331E+00   3.395139E+00   3.346935E+00   3.318604E+00   3.306125E+00   3.307191E+00   3.317722E+00   3.331228E+00   3.345148E+00   3.346663E+00   3.340141E+00   3.320735E+00   3.291968E+00   3.255929E+00   3.224462E+00   3.214602E+00   3.223563E+00   3.257248E+00   3.327065E+00   3.449914E+00   3.571980E+00   3.708479E+00   3.808588E+00   3.861327E+00   3.866356E+00   3.817944E+00   3.748615E+00   3.659345E+00   3.553566E+00   3.436535E+00   3.309685E+00   3.183150E+00   3.082385E+00   3.003073E+00   2.939877E+00   2.899343E+00   2.875906E+00   2.858182E+00   2.842953E+00   2.823444E+00   2.810821E+00   2.814803E+00   2.824283E+00   2.856017E+00   2.913493E+00   2.997204E+00   3.108614E+00   3.251971E+00   3.408455E+00   3.571222E+00   3.748792E+00   3.920237E+00   4.087210E+00   4.236589E+00   4.382056E+00   4.511928E+00   4.608337E+00   4.648900E+00   4.659340E+00   4.639356E+00   4.593838E+00   4.519293E+00   4.415815E+00   4.309705E+00   4.212643E+00   4.140231E+00   4.086834E+00   4.073904E+00   4.088749E+00   4.139112E+00   4.222951E+00   4.297617E+00   4.407238E+00   4.526243E+00   4.681448E+00   4.855182E+00   5.038558E+00   5.183339E+00   5.231165E+00   5.196201E+00   5.073420E+00   4.905962E+00   4.711180E+00   4.498132E+00   4.285388E+00   4.077936E+00   3.884245E+00   3.690147E+00   3.513769E+00   3.339705E+00   3.195487E+00   3.067574E+00   2.986647E+00   2.936164E+00   2.911288E+00   2.919496E+00   2.972018E+00   3.068680E+00   3.208347E+00   3.374346E+00   3.558580E+00   3.746909E+00   3.910050E+00   4.045986E+00   4.142581E+00   4.213524E+00   4.270862E+00   4.313162E+00   4.347965E+00   4.379189E+00   4.414520E+00   4.424816E+00   4.420019E+00   4.381882E+00   4.328588E+00   4.247711E+00   4.153028E+00   4.068450E+00   4.005011E+00   4.004121E+00   4.019001E+00   4.044994E+00   4.059690E+00   4.058067E+00   4.054811E+00   4.036845E+00   4.011713E+00   3.986659E+00   3.982282E+00
   3.911536E+00   3.831682E+00   3.749365E+00   3.665638E+00   3.598775E+00   3.527895E+00   3.482478E+00   3.448596E+00   3.426784E+00   3.390244E+00   3.342667E+00   3.261914E+00   3.174916E+00   3.070813E+00   2.974838E+00   2.897471E+00   2.853447E+00   2.846110E+00   2.866319E+00   2.912573E+00   2.976536E+00   3.079206E+00   3.215776E+00   3.387539E+00   3.576966E+00   3.793285E+00   4.037883E+00   4.276480E+00   4.495313E+00   4.657338E+00   4.768185E+00   4.801320E+00   4.762725E+00   4.652617E+00   4.500538E+00   4.292963E+00   4.082356E+00   3.863228E+00   3.680054E+00   3.528676E+00   3.416049E+00   3.325336E+00   3.259157E+00   3.194541E+00   3.126976E+00   3.063745E+00   3.039137E+00   3.014106E+00   3.012165E+00   3.011141E+00   3.004602E+00   2.979424E+00   2.953325E+00   2.898009E+00   2.834913E+00   2.772840E+00   2.718038E+00   2.692075E+00   2.709946E+00   2.779372E+00   2.893895E+00   3.038793E+00   3.197138E+00   3.347995E+00   3.465445E+00   3.536892E+00   3.565808E+00   3.555110E+00   3.505714E+00   3.429997E+00   3.324070E+00   3.222983E+00   3.130113E+00   3.063407E+00   3.021497E+00   3.001268E+00   3.009219E+00   3.034056E+00   3.075214E+00   3.111743E+00   3.131704E+00   3.132088E+00   3.117239E+00   3.074727E+00   3.034856E+00   2.993806E+00   2.965442E+00   2.958208E+00   2.985012E+00   3.067253E+00   3.196863E+00   3.362719E+00   3.524442E+00   3.668483E+00   3.739426E+00   3.749083E+00   3.708368E+00   3.630327E+00   3.534314E+00   3.403951E+00   3.256328E+00   3.102334E+00   2.953555E+00   2.817738E+00   2.714863E+00   2.634265E+00   2.577148E+00   2.544102E+00   2.526323E+00   2.512717E+00   2.502789E+00   2.501567E+00   2.520877E+00   2.552779E+00   2.595632E+00   2.672227E+00   2.769385E+00   2.892745E+00   3.056280E+00   3.237211E+00   3.430101E+00   3.653130E+00   3.878343E+00   4.098155E+00   4.299785E+00   4.472662E+00   4.633547E+00   4.738920E+00   4.800841E+00   4.799814E+00   4.755147E+00   4.666933E+00   4.541801E+00   4.403311E+00   4.262670E+00   4.145209E+00   4.047261E+00   4.002348E+00   3.997974E+00   4.043160E+00   4.128345E+00   4.227272E+00   4.359756E+00   4.515416E+00   4.711291E+00   4.935160E+00   5.205488E+00   5.455942E+00   5.644081E+00   5.718148E+00   5.676167E+00   5.513660E+00   5.266718E+00   4.982341E+00   4.678448E+00   4.378702E+00   4.085510E+00   3.801856E+00   3.529790E+00   3.281978E+00   3.066205E+00   2.875984E+00   2.743679E+00   2.652555E+00   2.600708E+00   2.587134E+00   2.617171E+00   2.693132E+00   2.816434E+00   2.984194E+00   3.191962E+00   3.408602E+00   3.632188E+00   3.836301E+00   4.016479E+00   4.146225E+00   4.243773E+00   4.309486E+00   4.361433E+00   4.399923E+00   4.422854E+00   4.430295E+00   4.437185E+00   4.415416E+00   4.373964E+00   4.306337E+00   4.231666E+00   4.167409E+00   4.107703E+00   4.083368E+00   4.095737E+00   4.140685E+00   4.191453E+00   4.206399E+00   4.196328E+00   4.158112E+00   4.116527E+00   4.075975E+00   4.039206E+00   4.009589E+00
   3.896487E+00   3.808254E+00   3.706922E+00   3.617452E+00   3.544442E+00   3.483766E+00   3.426803E+00   3.386709E+00   3.348932E+00   3.305351E+00   3.238040E+00   3.162426E+00   3.060745E+00   2.958930E+00   2.861315E+00   2.788409E+00   2.738228E+00   2.722290E+00   2.739033E+00   2.785691E+00   2.847097E+00   2.944284E+00   3.081258E+00   3.263831E+00   3.476337E+00   3.718148E+00   3.983536E+00   4.264820E+00   4.516634E+00   4.716466E+00   4.850509E+00   4.915878E+00   4.877909E+00   4.797019E+00   4.627367E+00   4.407824E+00   4.159596E+00   3.904487E+00   3.671318E+00   3.492222E+00   3.347693E+00   3.228940E+00   3.124591E+00   3.028313E+00   2.943744E+00   2.873060E+00   2.827161E+00   2.791457E+00   2.786659E+00   2.800190E+00   2.825059E+00   2.848067E+00   2.864358E+00   2.863603E+00   2.830343E+00   2.784986E+00   2.741773E+00   2.726256E+00   2.749025E+00   2.821715E+00   2.941358E+00   3.095727E+00   3.256348E+00   3.401584E+00   3.504669E+00   3.551288E+00   3.541127E+00   3.483267E+00   3.397069E+00   3.283829E+00   3.158131E+00   3.025137E+00   2.914789E+00   2.825326E+00   2.781728E+00   2.772602E+00   2.795856E+00   2.836390E+00   2.896229E+00   2.948113E+00   2.992825E+00   3.008836E+00   2.996561E+00   2.955806E+00   2.894807E+00   2.837559E+00   2.787289E+00   2.764863E+00   2.784456E+00   2.852416E+00   2.985402E+00   3.146054E+00   3.332183E+00   3.492669E+00   3.601558E+00   3.641145E+00   3.617169E+00   3.549275E+00   3.454290E+00   3.324189E+00   3.169622E+00   2.996254E+00   2.833288E+00   2.695281E+00   2.574498E+00   2.488421E+00   2.434541E+00   2.394131E+00   2.381536E+00   2.367510E+00   2.371111E+00   2.385659E+00   2.416371E+00   2.466607E+00   2.530404E+00   2.616676E+00   2.714842E+00   2.835975E+00   2.982322E+00   3.155392E+00   3.350626E+00   3.571742E+00   3.813820E+00   4.059608E+00   4.281161E+00   4.464668E+00   4.609280E+00   4.704462E+00   4.741939E+00   4.729298E+00   4.662521E+00   4.551929E+00   4.400402E+00   4.236485E+00   4.082764E+00   3.945058E+00   3.856895E+00   3.807750E+00   3.816730E+00   3.888062E+00   4.005543E+00   4.150350E+00   4.329516E+00   4.553906E+00   4.811734E+00   5.114915E+00   5.422767E+00   5.737962E+00   5.979630E+00   6.085798E+00   6.045016E+00   5.857011E+00   5.552413E+00   5.189790E+00   4.811543E+00   4.453173E+00   4.093828E+00   3.749694E+00   3.426076E+00   3.139423E+00   2.890182E+00   2.701376E+00   2.551431E+00   2.445821E+00   2.392169E+00   2.380884E+00   2.413361E+00   2.498123E+00   2.634604E+00   2.831747E+00   3.050505E+00   3.292474E+00   3.532454E+00   3.767030E+00   3.958556E+00   4.113553E+00   4.209690E+00   4.281827E+00   4.319310E+00   4.339375E+00   4.337283E+00   4.334738E+00   4.302793E+00   4.280665E+00   4.231242E+00   4.189274E+00   4.155097E+00   4.129644E+00   4.138733E+00   4.185241E+00   4.258897E+00   4.340997E+00   4.394079E+00   4.415672E+00   4.386100E+00   4.323329E+00   4.237018E+00   4.156033E+00   4.091967E+00   4.036533E+00
   3.901870E+00   3.810042E+00   3.713360E+00   3.630619E+00   3.558997E+00   3.493506E+00   3.438645E+00   3.387208E+00   3.350674E+00   3.289346E+00   3.216964E+00   3.122127E+00   3.023962E+00   2.923137E+00   2.831742E+00   2.753541E+00   2.702091E+00   2.679090E+00   2.700106E+00   2.742836E+00   2.817872E+00   2.926699E+00   3.056362E+00   3.230322E+00   3.438370E+00   3.675436E+00   3.932552E+00   4.187598E+00   4.435275E+00   4.641836E+00   4.792233E+00   4.872357E+00   4.908738E+00   4.864624E+00   4.746707E+00   4.554101E+00   4.323959E+00   4.030289E+00   3.759150E+00   3.508772E+00   3.314141E+00   3.156717E+00   3.022793E+00   2.903883E+00   2.799854E+00   2.721595E+00   2.671413E+00   2.639315E+00   2.636952E+00   2.670618E+00   2.739028E+00   2.823272E+00   2.910399E+00   2.960914E+00   2.976478E+00   2.960608E+00   2.945771E+00   2.945113E+00   2.983158E+00   3.057788E+00   3.184582E+00   3.341520E+00   3.498817E+00   3.627196E+00   3.703042E+00   3.705253E+00   3.643279E+00   3.534868E+00   3.394053E+00   3.237653E+00   3.074082E+00   2.924111E+00   2.788413E+00   2.691344E+00   2.641856E+00   2.636441E+00   2.665553E+00   2.729699E+00   2.800460E+00   2.866715E+00   2.918719E+00   2.931915E+00   2.906758E+00   2.852291E+00   2.782362E+00   2.705575E+00   2.637265E+00   2.599838E+00   2.599771E+00   2.654421E+00   2.770372E+00   2.936398E+00   3.119923E+00   3.299426E+00   3.442921E+00   3.518972E+00   3.534901E+00   3.509247E+00   3.445292E+00   3.341270E+00   3.193184E+00   3.013476E+00   2.849857E+00   2.707128E+00   2.596673E+00   2.519305E+00   2.464872E+00   2.428904E+00   2.405239E+00   2.407467E+00   2.422821E+00   2.449170E+00   2.487290E+00   2.553874E+00   2.622399E+00   2.698764E+00   2.790327E+00   2.883755E+00   3.001102E+00   3.141711E+00   3.320543E+00   3.524753E+00   3.754327E+00   3.992451E+00   4.188705E+00   4.356341E+00   4.462068E+00   4.500335E+00   4.506154E+00   4.485488E+00   4.419458E+00   4.310176E+00   4.155074E+00   4.002157E+00   3.840946E+00   3.702344E+00   3.601584E+00   3.566289E+00   3.585437E+00   3.675078E+00   3.812033E+00   4.004597E+00   4.233422E+00   4.506071E+00   4.817446E+00   5.152408E+00   5.490242E+00   5.837904E+00   6.114151E+00   6.269764E+00   6.252345E+00   6.083071E+00   5.760362E+00   5.356669E+00   4.929173E+00   4.505962E+00   4.100243E+00   3.721523E+00   3.369697E+00   3.067341E+00   2.812027E+00   2.601911E+00   2.446267E+00   2.333058E+00   2.271336E+00   2.255524E+00   2.288865E+00   2.376826E+00   2.523945E+00   2.715990E+00   2.945453E+00   3.191431E+00   3.443827E+00   3.689499E+00   3.913807E+00   4.080287E+00   4.192989E+00   4.246730E+00   4.279375E+00   4.268241E+00   4.247640E+00   4.206355E+00   4.172342E+00   4.134916E+00   4.107787E+00   4.081110E+00   4.088430E+00   4.122756E+00   4.193664E+00   4.301165E+00   4.423898E+00   4.541402E+00   4.623218E+00   4.634028E+00   4.598015E+00   4.522608E+00   4.414545E+00   4.300175E+00   4.189111E+00   4.089307E+00
   3.927815E+00   3.860700E+00   3.788744E+00   3.723358E+00   3.643909E+00   3.575287E+00   3.507412E+00   3.460397E+00   3.412862E+00   3.347952E+00   3.263255E+00   3.164515E+00   3.053253E+00   2.956557E+00   2.865202E+00   2.791704E+00   2.733623E+00   2.716513E+00   2.734949E+00   2.798158E+00   2.881831E+00   2.997786E+00   3.127979E+00   3.293004E+00   3.480339E+00   3.681142E+00   3.901382E+00   4.138025E+00   4.358359E+00   4.559196E+00   4.716140E+00   4.837179E+00   4.928941E+00   4.954618E+00   4.886702E+00   4.749337E+00   4.529208E+00   4.227164E+00   3.908436E+00   3.604401E+00   3.351197E+00   3.144793E+00   2.971009E+00   2.837258E+00   2.728488E+00   2.642987E+00   2.594025E+00   2.572814E+00   2.600033E+00   2.667306E+00   2.776467E+00   2.913757E+00   3.051936E+00   3.166381E+00   3.228414E+00   3.264240E+00   3.281570E+00   3.301493E+00   3.351293E+00   3.445963E+00   3.576844E+00   3.732575E+00   3.894592E+00   4.002845E+00   4.042790E+00   3.995556E+00   3.872857E+00   3.711086E+00   3.517945E+00   3.313353E+00   3.125373E+00   2.946438E+00   2.803389E+00   2.694566E+00   2.639076E+00   2.634377E+00   2.659803E+00   2.717062E+00   2.790291E+00   2.847984E+00   2.890209E+00   2.890966E+00   2.853413E+00   2.790517E+00   2.707287E+00   2.614399E+00   2.527253E+00   2.466004E+00   2.452982E+00   2.498542E+00   2.602445E+00   2.761579E+00   2.956647E+00   3.157105E+00   3.335992E+00   3.461571E+00   3.531374E+00   3.551289E+00   3.522985E+00   3.437395E+00   3.300127E+00   3.144443E+00   2.984957E+00   2.848206E+00   2.744254E+00   2.675925E+00   2.636642E+00   2.606714E+00   2.595410E+00   2.592912E+00   2.610044E+00   2.640118E+00   2.692075E+00   2.751522E+00   2.813734E+00   2.871397E+00   2.922067E+00   2.981709E+00   3.061305E+00   3.170163E+00   3.314244E+00   3.483802E+00   3.680288E+00   3.872829E+00   4.037338E+00   4.143910E+00   4.186233E+00   4.176988E+00   4.164073E+00   4.130474E+00   4.092540E+00   4.018296E+00   3.917887E+00   3.791778E+00   3.648619E+00   3.509612E+00   3.405328E+00   3.358668E+00   3.389345E+00   3.480278E+00   3.632791E+00   3.854622E+00   4.108353E+00   4.401386E+00   4.727637E+00   5.082166E+00   5.440807E+00   5.797462E+00   6.092980E+00   6.275750E+00   6.311432E+00   6.159292E+00   5.833547E+00   5.431154E+00   4.999911E+00   4.560089E+00   4.134532E+00   3.733138E+00   3.386556E+00   3.081827E+00   2.822254E+00   2.607354E+00   2.437986E+00   2.312042E+00   2.234910E+00   2.207040E+00   2.236291E+00   2.315614E+00   2.456544E+00   2.644683E+00   2.874015E+00   3.128569E+00   3.389712E+00   3.644891E+00   3.861534E+00   4.030225E+00   4.142860E+00   4.209148E+00   4.220071E+00   4.215765E+00   4.167651E+00   4.130860E+00   4.083504E+00   4.053134E+00   4.027134E+00   4.034110E+00   4.065626E+00   4.130365E+00   4.237762E+00   4.388661E+00   4.553237E+00   4.687930E+00   4.764579E+00   4.776510E+00   4.729445E+00   4.654731E+00   4.559117E+00   4.432513E+00   4.291488E+00   4.145069E+00
   3.979273E+00   3.956159E+00   3.916205E+00   3.846306E+00   3.787443E+00   3.702504E+00   3.640655E+00   3.585510E+00   3.538828E+00   3.470094E+00   3.374851E+00   3.260926E+00   3.137227E+00   3.032756E+00   2.943128E+00   2.871743E+00   2.819727E+00   2.790932E+00   2.820180E+00   2.883615E+00   2.984522E+00   3.110490E+00   3.237092E+00   3.391565E+00   3.556882E+00   3.740111E+00   3.941420E+00   4.130703E+00   4.330993E+00   4.528904E+00   4.722132E+00   4.876182E+00   4.993912E+00   5.068104E+00   5.074667E+00   4.980466E+00   4.779198E+00   4.475804E+00   4.124164E+00   3.773871E+00   3.476475E+00   3.219540E+00   3.016475E+00   2.855351E+00   2.731791E+00   2.650911E+00   2.602426E+00   2.606625E+00   2.659125E+00   2.753928E+00   2.901804E+00   3.083546E+00   3.264669E+00   3.425365E+00   3.535697E+00   3.600750E+00   3.640839E+00   3.670832E+00   3.742135E+00   3.855271E+00   4.003470E+00   4.173996E+00   4.336161E+00   4.434811E+00   4.437871E+00   4.351457E+00   4.188848E+00   3.979953E+00   3.749609E+00   3.520410E+00   3.295760E+00   3.104655E+00   2.944021E+00   2.832961E+00   2.760223E+00   2.730724E+00   2.735771E+00   2.772345E+00   2.824399E+00   2.867318E+00   2.880882E+00   2.863230E+00   2.808934E+00   2.742249E+00   2.651649E+00   2.551161E+00   2.460413E+00   2.394332E+00   2.382600E+00   2.432852E+00   2.543220E+00   2.699636E+00   2.901194E+00   3.111038E+00   3.316949E+00   3.494876E+00   3.621436E+00   3.674703E+00   3.671153E+00   3.600062E+00   3.484364E+00   3.344393E+00   3.200691E+00   3.072430E+00   2.982474E+00   2.926567E+00   2.896376E+00   2.880072E+00   2.874654E+00   2.873953E+00   2.886201E+00   2.915224E+00   2.966210E+00   3.023413E+00   3.067225E+00   3.109317E+00   3.123051E+00   3.139877E+00   3.171405E+00   3.221919E+00   3.309333E+00   3.421777E+00   3.554208E+00   3.683950E+00   3.775343E+00   3.815055E+00   3.803341E+00   3.772159E+00   3.744740E+00   3.737391E+00   3.736133E+00   3.736666E+00   3.699721E+00   3.620696E+00   3.521719E+00   3.398683E+00   3.292232E+00   3.230081E+00   3.250140E+00   3.343966E+00   3.513215E+00   3.754144E+00   4.030855E+00   4.333136E+00   4.646071E+00   4.978895E+00   5.326036E+00   5.670710E+00   5.978734E+00   6.190749E+00   6.240615E+00   6.111331E+00   5.835785E+00   5.473822E+00   5.048504E+00   4.618592E+00   4.186466E+00   3.799211E+00   3.452373E+00   3.154266E+00   2.900431E+00   2.673930E+00   2.493091E+00   2.357881E+00   2.273271E+00   2.237069E+00   2.258681E+00   2.327810E+00   2.456127E+00   2.632661E+00   2.854658E+00   3.111703E+00   3.386514E+00   3.643556E+00   3.849093E+00   4.000098E+00   4.092224E+00   4.131526E+00   4.142382E+00   4.115860E+00   4.074187E+00   4.032068E+00   3.994980E+00   3.959914E+00   3.949571E+00   3.955148E+00   4.000737E+00   4.076271E+00   4.203274E+00   4.372614E+00   4.537578E+00   4.676059E+00   4.759555E+00   4.768582E+00   4.728355E+00   4.656094E+00   4.566972E+00   4.446611E+00   4.311323E+00   4.159031E+00
   4.043944E+00   4.084251E+00   4.071560E+00   4.037457E+00   3.961123E+00   3.885329E+00   3.813873E+00   3.759745E+00   3.693266E+00   3.604332E+00   3.480268E+00   3.350342E+00   3.221490E+00   3.114237E+00   3.027760E+00   2.968560E+00   2.913668E+00   2.900945E+00   2.924335E+00   2.989034E+00   3.088121E+00   3.214369E+00   3.342011E+00   3.478638E+00   3.627278E+00   3.797488E+00   3.965887E+00   4.147927E+00   4.342088E+00   4.552098E+00   4.756655E+00   4.955029E+00   5.105526E+00   5.217940E+00   5.244240E+00   5.180569E+00   5.009579E+00   4.736838E+00   4.381097E+00   4.004311E+00   3.652209E+00   3.364171E+00   3.127102E+00   2.945453E+00   2.819981E+00   2.736183E+00   2.707404E+00   2.717153E+00   2.787616E+00   2.909348E+00   3.080762E+00   3.272676E+00   3.458491E+00   3.628752E+00   3.748389E+00   3.826623E+00   3.874851E+00   3.941497E+00   4.036553E+00   4.176072E+00   4.367091E+00   4.566424E+00   4.749400E+00   4.856378E+00   4.847874E+00   4.724268E+00   4.530465E+00   4.301564E+00   4.057119E+00   3.805796E+00   3.578020E+00   3.378785E+00   3.201910E+00   3.065785E+00   2.968170E+00   2.905928E+00   2.886279E+00   2.880862E+00   2.896504E+00   2.905190E+00   2.900316E+00   2.859498E+00   2.798972E+00   2.724544E+00   2.643346E+00   2.555570E+00   2.476174E+00   2.431095E+00   2.431866E+00   2.497463E+00   2.614140E+00   2.782594E+00   2.976530E+00   3.194022E+00   3.412880E+00   3.608746E+00   3.764050E+00   3.838607E+00   3.843475E+00   3.785242E+00   3.673173E+00   3.547333E+00   3.416415E+00   3.299224E+00   3.213005E+00   3.165210E+00   3.149520E+00   3.144393E+00   3.148754E+00   3.160737E+00   3.179785E+00   3.208493E+00   3.261192E+00   3.311973E+00   3.341476E+00   3.346866E+00   3.325530E+00   3.288815E+00   3.259228E+00   3.245870E+00   3.260620E+00   3.298815E+00   3.355190E+00   3.410868E+00   3.443059E+00   3.444955E+00   3.415837E+00   3.382853E+00   3.375622E+00   3.390769E+00   3.445407E+00   3.503310E+00   3.536118E+00   3.519632E+00   3.462508E+00   3.370136E+00   3.284958E+00   3.228402E+00   3.243505E+00   3.322989E+00   3.491481E+00   3.742134E+00   4.034782E+00   4.339189E+00   4.636854E+00   4.932188E+00   5.240337E+00   5.557601E+00   5.847457E+00   6.060461E+00   6.144224E+00   6.064049E+00   5.841320E+00   5.502997E+00   5.103802E+00   4.676566E+00   4.270780E+00   3.887079E+00   3.561090E+00   3.278968E+00   3.029220E+00   2.794510E+00   2.601727E+00   2.453158E+00   2.352811E+00   2.309780E+00   2.314745E+00   2.383163E+00   2.500350E+00   2.669642E+00   2.872584E+00   3.123362E+00   3.385694E+00   3.627929E+00   3.815289E+00   3.944155E+00   4.011918E+00   4.035552E+00   4.031559E+00   3.989861E+00   3.960452E+00   3.940637E+00   3.914570E+00   3.893006E+00   3.875548E+00   3.878311E+00   3.914015E+00   3.979132E+00   4.088714E+00   4.229671E+00   4.382285E+00   4.501448E+00   4.582037E+00   4.594594E+00   4.576187E+00   4.527839E+00   4.442946E+00   4.360918E+00   4.255165E+00   4.139276E+00
   4.118180E+00   4.210816E+00   4.262755E+00   4.250118E+00   4.208630E+00   4.125297E+00   4.065337E+00   3.997535E+00   3.909375E+00   3.779706E+00   3.618815E+00   3.459009E+00   3.315361E+00   3.196697E+00   3.115680E+00   3.068143E+00   3.036105E+00   3.024337E+00   3.037428E+00   3.090958E+00   3.170420E+00   3.276121E+00   3.403471E+00   3.531901E+00   3.672362E+00   3.816555E+00   3.980224E+00   4.159846E+00   4.383806E+00   4.596792E+00   4.814274E+00   5.006407E+00   5.182038E+00   5.289870E+00   5.336457E+00   5.285746E+00   5.156719E+00   4.925608E+00   4.612151E+00   4.239920E+00   3.878097E+00   3.554821E+00   3.295648E+00   3.101665E+00   2.960296E+00   2.877703E+00   2.847383E+00   2.877124E+00   2.958145E+00   3.078714E+00   3.238649E+00   3.414144E+00   3.595855E+00   3.736802E+00   3.843132E+00   3.910356E+00   3.973757E+00   4.058441E+00   4.187907E+00   4.376709E+00   4.612124E+00   4.859396E+00   5.051652E+00   5.164973E+00   5.162197E+00   5.044366E+00   4.843063E+00   4.610461E+00   4.366117E+00   4.127759E+00   3.916893E+00   3.720219E+00   3.534990E+00   3.382083E+00   3.238420E+00   3.138185E+00   3.068175E+00   3.020222E+00   2.986722E+00   2.955913E+00   2.921168E+00   2.867644E+00   2.805056E+00   2.742667E+00   2.669938E+00   2.617275E+00   2.576621E+00   2.566499E+00   2.601897E+00   2.682491E+00   2.829595E+00   3.011442E+00   3.223830E+00   3.450827E+00   3.654350E+00   3.813739E+00   3.943824E+00   4.021133E+00   4.009696E+00   3.952889E+00   3.842143E+00   3.726851E+00   3.610597E+00   3.506872E+00   3.426332E+00   3.373933E+00   3.343457E+00   3.344653E+00   3.355199E+00   3.380843E+00   3.414415E+00   3.450564E+00   3.493456E+00   3.514270E+00   3.512365E+00   3.487255E+00   3.433968E+00   3.359513E+00   3.271376E+00   3.190940E+00   3.133686E+00   3.101250E+00   3.092235E+00   3.087162E+00   3.078243E+00   3.065214E+00   3.046965E+00   3.047238E+00   3.070495E+00   3.129658E+00   3.220383E+00   3.330335E+00   3.413831E+00   3.461282E+00   3.454548E+00   3.416329E+00   3.355121E+00   3.320203E+00   3.334348E+00   3.425553E+00   3.583924E+00   3.818586E+00   4.091462E+00   4.376580E+00   4.643053E+00   4.915374E+00   5.189408E+00   5.482134E+00   5.739643E+00   5.937401E+00   6.021600E+00   5.970095E+00   5.784230E+00   5.507680E+00   5.159403E+00   4.774968E+00   4.399702E+00   4.038074E+00   3.708719E+00   3.426108E+00   3.170099E+00   2.937063E+00   2.730333E+00   2.577468E+00   2.473490E+00   2.423671E+00   2.431423E+00   2.486078E+00   2.602518E+00   2.752690E+00   2.949528E+00   3.173568E+00   3.409715E+00   3.627441E+00   3.804529E+00   3.901487E+00   3.955581E+00   3.968766E+00   3.953348E+00   3.917669E+00   3.892938E+00   3.872640E+00   3.862186E+00   3.836200E+00   3.818098E+00   3.802660E+00   3.816161E+00   3.857790E+00   3.934494E+00   4.038392E+00   4.145880E+00   4.244598E+00   4.296046E+00   4.321318E+00   4.321303E+00   4.298643E+00   4.258653E+00   4.217439E+00   4.165563E+00   4.084890E+00