# LPF package for  MODFLOW-2005, generated by Flopy.
         0    -1E+30         0  
         0
         0
   1.000000E+00
         0
         0
INTERNAL               1 (200E15.6) -1 #hk layer 1                    
   3.962822E+00   3.935325E+00   3.904700E+00   3.862709E+00   3.833981E+00   3.813570E+00   3.802222E+00   3.789480E+00   3.787863E+00   3.761596E+00   3.732153E+00   3.689117E+00   3.641873E+00   3.585453E+00   3.527847E+00   3.488935E+00   3.471421E+00   3.475738E+00   3.487999E+00   3.515108E+00   3.555628E+00   3.610362E+00   3.676396E+00   3.769908E+00   3.856595E+00   3.942775E+00   4.024138E+00   4.102705E+00   4.173443E+00   4.228932E+00   4.263510E+00   4.278177E+00   4.262479E+00   4.208744E+00   4.144108E+00   4.061019E+00   3.983630E+00   3.902469E+00   3.837307E+00   3.780408E+00   3.734373E+00   3.705044E+00   3.677691E+00   3.641509E+00   3.612205E+00   3.596285E+00   3.597929E+00   3.596495E+00   3.597110E+00   3.587733E+00   3.565943E+00   3.538535E+00   3.502673E+00   3.460985E+00   3.425243E+00   3.380488E+00   3.348162E+00   3.330718E+00   3.342672E+00   3.384844E+00   3.437939E+00   3.508689E+00   3.589010E+00   3.667544E+00   3.724886E+00   3.774130E+00   3.803690E+00   3.823907E+00   3.825842E+00   3.805890E+00   3.768454E+00   3.724065E+00   3.683697E+00   3.658650E+00   3.654558E+00   3.647006E+00   3.655282E+00   3.651598E+00   3.644415E+00   3.635003E+00   3.635612E+00   3.623598E+00   3.611261E+00   3.599313E+00   3.582921E+00   3.572076E+00   3.569863E+00   3.582195E+00   3.598175E+00   3.648983E+00   3.714866E+00   3.790881E+00   3.863262E+00   3.918306E+00   3.938035E+00   3.934253E+00   3.911752E+00   3.868115E+00   3.820142E+00   3.755189E+00   3.688766E+00   3.614342E+00   3.538819E+00   3.483541E+00   3.436827E+00   3.398646E+00   3.375483E+00   3.354391E+00   3.352451E+00   3.340933E+00   3.328668E+00   3.308980E+00   3.299397E+00   3.305079E+00   3.313927E+00   3.344090E+00   3.403507E+00   3.482025E+00   3.577549E+00   3.682031E+00   3.773273E+00   3.873520E+00   3.963144E+00   4.047446E+00   4.127136E+00   4.192612E+00   4.268183E+00   4.325116E+00   4.356712E+00   4.372978E+00   4.360152E+00   4.335505E+00   4.308298E+00   4.267516E+00   4.212899E+00   4.168979E+00   4.110969E+00   4.072235E+00   4.050333E+00   4.051459E+00   4.074150E+00   4.106707E+00   4.158686E+00   4.213202E+00   4.279409E+00   4.349003E+00   4.431296E+00   4.525100E+00   4.590647E+00   4.616889E+00   4.595819E+00   4.545338E+00   4.457889E+00   4.370971E+00   4.269300E+00   4.164059E+00   4.064081E+00   3.962163E+00   3.866554E+00   3.760762E+00   3.673565E+00   3.573055E+00   3.493788E+00   3.439949E+00   3.401787E+00   3.384990E+00   3.389015E+00   3.415072E+00   3.461255E+00   3.544755E+00   3.647606E+00   3.756703E+00   3.870465E+00   3.969486E+00   4.043379E+00   4.094660E+00   4.129277E+00   4.160705E+00   4.187225E+00   4.202287E+00   4.222108E+00   4.238200E+00   4.251591E+00   4.250290E+00   4.238807E+00   4.202110E+00   4.153027E+00   4.089891E+00   4.032043E+00   3.993635E+00   3.975592E+00   3.977444E+00   3.985375E+00   4.000411E+00   4.005249E+00   4.010296E+00   4.009972E+00   3.991202E+00   3.983187E+00   3.979285E+00
   3.931148E+00   3.887840E+00   3.829948E+00   3.762794E+00   3.694758E+00   3.655745E+00   3.623758E+00   3.599986E+00   3.585721E+00   3.569307E+00   3.518428E+00   3.459175E+00   3.366496E+00   3.277859E+00   3.189268E+00   3.124569E+00   3.088348E+00   3.089699E+00   3.109127E+00   3.146198E+00   3.207195E+00   3.295076E+00   3.409142E+00   3.546440E+00   3.701570E+00   3.869666E+00   4.044449E+00   4.213122E+00   4.364058E+00   4.476950E+00   4.542845E+00   4.578582E+00   4.539485E+00   4.450011E+00   4.313866E+00   4.166959E+00   4.016917E+00   3.866461E+00   3.721251E+00   3.617249E+00   3.532100E+00   3.477609E+00   3.426668E+00   3.378213E+00   3.326999E+00   3.299497E+00   3.291517E+00   3.285647E+00   3.282971E+00   3.269589E+00   3.242058E+00   3.198206E+00   3.152025E+00   3.091684E+00   3.019268E+00   2.953068E+00   2.904781E+00   2.881411E+00   2.896928E+00   2.955924E+00   3.048367E+00   3.177515E+00   3.316512E+00   3.439419E+00   3.540900E+00   3.620181E+00   3.659708E+00   3.670748E+00   3.654335E+00   3.607541E+00   3.536545E+00   3.462767E+00   3.394546E+00   3.346312E+00   3.317954E+00   3.305445E+00   3.306483E+00   3.316987E+00   3.330478E+00   3.344391E+00   3.345915E+00   3.339417E+00   3.320042E+00   3.291318E+00   3.255326E+00   3.223913E+00   3.214105E+00   3.223112E+00   3.256830E+00   3.326663E+00   3.449513E+00   3.571569E+00   3.708052E+00   3.808142E+00   3.860858E+00   3.865874E+00   3.817456E+00   3.748132E+00   3.658875E+00   3.553123E+00   3.436130E+00   3.309324E+00   3.182834E+00   3.082108E+00   3.002831E+00   2.939660E+00   2.899144E+00   2.875722E+00   2.858008E+00   2.842792E+00   2.823295E+00   2.810688E+00   2.814688E+00   2.824190E+00   2.855946E+00   2.913450E+00   2.997185E+00   3.108618E+00   3.251988E+00   3.408483E+00   3.571251E+00   3.748812E+00   3.920232E+00   4.087169E+00   4.236504E+00   4.381924E+00   4.511755E+00   4.608138E+00   4.648687E+00   4.659123E+00   4.639141E+00   4.593634E+00   4.519094E+00   4.415617E+00   4.309505E+00   4.212437E+00   4.140013E+00   4.086596E+00   4.073649E+00   4.088476E+00   4.138824E+00   4.222649E+00   4.297303E+00   4.406907E+00   4.525893E+00   4.681066E+00   4.854755E+00   5.038076E+00   5.182800E+00   5.230577E+00   5.195579E+00   5.072781E+00   4.905316E+00   4.710532E+00   4.497486E+00   4.284739E+00   4.077285E+00   3.883596E+00   3.689503E+00   3.513137E+00   3.339088E+00   3.194886E+00   3.066986E+00   2.986067E+00   2.935590E+00   2.910720E+00   2.918932E+00   2.971457E+00   3.068112E+00   3.207771E+00   3.373758E+00   3.557981E+00   3.746309E+00   3.909462E+00   4.045431E+00   4.142082E+00   4.213098E+00   4.270513E+00   4.312889E+00   4.347755E+00   4.379030E+00   4.414397E+00   4.424718E+00   4.419935E+00   4.381806E+00   4.328512E+00   4.247635E+00   4.152955E+00   4.068385E+00   4.004961E+00   4.004093E+00   4.019004E+00   4.045031E+00   4.059762E+00   4.058163E+00   4.054926E+00   4.036963E+00   4.011816E+00   3.986735E+00   3.982324E+00
   3.911517E+00   3.831647E+00   3.749309E+00   3.665561E+00   3.598670E+00   3.527765E+00   3.482327E+00   3.448435E+00   3.426622E+00   3.390097E+00   3.342541E+00   3.261824E+00   3.174858E+00   3.070793E+00   2.974852E+00   2.897521E+00   2.853534E+00   2.846230E+00   2.866476E+00   2.912762E+00   2.976758E+00   3.079458E+00   3.216056E+00   3.387846E+00   3.577288E+00   3.793618E+00   4.038212E+00   4.276802E+00   4.495609E+00   4.657599E+00   4.768401E+00   4.801488E+00   4.762843E+00   4.652685E+00   4.500561E+00   4.292950E+00   4.082317E+00   3.863176E+00   3.679995E+00   3.528612E+00   3.415982E+00   3.325269E+00   3.259089E+00   3.194479E+00   3.126918E+00   3.063691E+00   3.039084E+00   3.014046E+00   3.012092E+00   3.011049E+00   3.004492E+00   2.979292E+00   2.953178E+00   2.897846E+00   2.834741E+00   2.772660E+00   2.717852E+00   2.691883E+00   2.709740E+00   2.779145E+00   2.893640E+00   3.038504E+00   3.196810E+00   3.347624E+00   3.465034E+00   3.536437E+00   3.565309E+00   3.554566E+00   3.505119E+00   3.429355E+00   3.323385E+00   3.222260E+00   3.129357E+00   3.062618E+00   3.020672E+00   3.000405E+00   3.008311E+00   3.033106E+00   3.074229E+00   3.110741E+00   3.130703E+00   3.131110E+00   3.116303E+00   3.073851E+00   3.034047E+00   2.993071E+00   2.964777E+00   2.957602E+00   2.984453E+00   3.066713E+00   3.196323E+00   3.362160E+00   3.523857E+00   3.667865E+00   3.738780E+00   3.748420E+00   3.707703E+00   3.629674E+00   3.533689E+00   3.403371E+00   3.255803E+00   3.101874E+00   2.953155E+00   2.817393E+00   2.714563E+00   2.634004E+00   2.576914E+00   2.543890E+00   2.526129E+00   2.512536E+00   2.502624E+00   2.501415E+00   2.520740E+00   2.552660E+00   2.595536E+00   2.672156E+00   2.769340E+00   2.892720E+00   3.056269E+00   3.237205E+00   3.430089E+00   3.653097E+00   3.878273E+00   4.098034E+00   4.299607E+00   4.472429E+00   4.633268E+00   4.738612E+00   4.800523E+00   4.799499E+00   4.754848E+00   4.666647E+00   4.541533E+00   4.403052E+00   4.262412E+00   4.144944E+00   4.046981E+00   4.002049E+00   3.997652E+00   4.042812E+00   4.127971E+00   4.226879E+00   4.359347E+00   4.514985E+00   4.710834E+00   4.934656E+00   5.204917E+00   5.455287E+00   5.643327E+00   5.717306E+00   5.675258E+00   5.512710E+00   5.265753E+00   4.981374E+00   4.677493E+00   4.377756E+00   4.084583E+00   3.800951E+00   3.528918E+00   3.281142E+00   3.065405E+00   2.875223E+00   2.742945E+00   2.651841E+00   2.600003E+00   2.586432E+00   2.616468E+00   2.692423E+00   2.815707E+00   2.983443E+00   3.191182E+00   3.407799E+00   3.631373E+00   3.835497E+00   4.015714E+00   4.145532E+00   4.243176E+00   4.308996E+00   4.361052E+00   4.399634E+00   4.422639E+00   4.430137E+00   4.437061E+00   4.415307E+00   4.373857E+00   4.306226E+00   4.231545E+00   4.167290E+00   4.107592E+00   4.083275E+00   4.095672E+00   4.140660E+00   4.191477E+00   4.206470E+00   4.196438E+00   4.158250E+00   4.116672E+00   4.076107E+00   4.039307E+00   4.009644E+00
   3.896464E+00   3.808209E+00   3.706855E+00   3.617357E+00   3.544316E+00   3.483613E+00   3.426631E+00   3.386533E+00   3.348768E+00   3.305208E+00   3.237928E+00   3.162349E+00   3.060705E+00   2.958928E+00   2.861353E+00   2.788484E+00   2.738343E+00   2.722442E+00   2.739224E+00   2.785918E+00   2.847363E+00   2.944584E+00   3.081592E+00   3.264192E+00   3.476718E+00   3.718536E+00   3.983924E+00   4.265192E+00   4.516976E+00   4.716762E+00   4.850755E+00   4.916064E+00   4.878037E+00   4.797090E+00   4.627389E+00   4.407800E+00   4.159536E+00   3.904402E+00   3.671219E+00   3.492116E+00   3.347587E+00   3.228835E+00   3.124489E+00   3.028219E+00   2.943658E+00   2.872981E+00   2.827088E+00   2.791384E+00   2.786573E+00   2.800085E+00   2.824928E+00   2.847910E+00   2.864170E+00   2.863389E+00   2.830109E+00   2.784737E+00   2.741513E+00   2.725985E+00   2.748740E+00   2.821408E+00   2.941023E+00   3.095355E+00   3.255935E+00   3.401125E+00   3.504165E+00   3.550739E+00   3.540533E+00   3.482626E+00   3.396385E+00   3.283100E+00   3.157363E+00   3.024335E+00   2.913954E+00   2.824460E+00   2.780818E+00   2.771639E+00   2.794832E+00   2.835305E+00   2.895091E+00   2.946941E+00   2.991640E+00   3.007666E+00   2.995436E+00   2.954751E+00   2.893836E+00   2.836679E+00   2.786495E+00   2.764142E+00   2.783786E+00   2.851774E+00   2.984761E+00   3.145393E+00   3.331485E+00   3.491930E+00   3.600783E+00   3.640348E+00   3.616372E+00   3.548498E+00   3.453550E+00   3.323504E+00   3.169008E+00   2.995717E+00   2.832827E+00   2.694885E+00   2.574161E+00   2.488129E+00   2.434285E+00   2.393903E+00   2.381327E+00   2.367318E+00   2.370932E+00   2.385493E+00   2.416213E+00   2.466465E+00   2.530279E+00   2.616571E+00   2.714756E+00   2.835905E+00   2.982254E+00   3.155321E+00   3.350534E+00   3.571621E+00   3.813650E+00   4.059379E+00   4.280868E+00   4.464320E+00   4.608890E+00   4.704058E+00   4.741539E+00   4.728919E+00   4.662169E+00   4.551609E+00   4.400107E+00   4.236207E+00   4.082492E+00   3.944781E+00   3.856604E+00   3.807434E+00   3.816385E+00   3.887684E+00   4.005138E+00   4.149925E+00   4.329075E+00   4.553445E+00   4.811244E+00   5.114376E+00   5.422152E+00   5.737241E+00   5.978783E+00   6.084826E+00   6.043935E+00   5.855852E+00   5.551209E+00   5.188571E+00   4.810327E+00   4.451977E+00   4.092665E+00   3.748579E+00   3.425020E+00   3.138427E+00   2.889246E+00   2.700492E+00   2.550591E+00   2.445014E+00   2.391377E+00   2.380099E+00   2.412575E+00   2.497324E+00   2.633779E+00   2.830882E+00   3.049601E+00   3.291534E+00   3.531502E+00   3.766084E+00   3.957659E+00   4.112735E+00   4.208987E+00   4.281255E+00   4.318870E+00   4.339051E+00   4.337050E+00   4.334571E+00   4.302663E+00   4.280549E+00   4.231122E+00   4.189139E+00   4.154940E+00   4.129474E+00   4.138562E+00   4.185084E+00   4.258769E+00   4.340914E+00   4.394058E+00   4.415711E+00   4.386193E+00   4.323459E+00   4.237165E+00   4.156167E+00   4.092070E+00   4.036587E+00
   3.901843E+00   3.809988E+00   3.713278E+00   3.630505E+00   3.558853E+00   3.493340E+00   3.438466E+00   3.387032E+00   3.350513E+00   3.289212E+00   3.216866E+00   3.122063E+00   3.023937E+00   2.923154E+00   2.831798E+00   2.753637E+00   2.702227E+00   2.679263E+00   2.700322E+00   2.743093E+00   2.818170E+00   2.927038E+00   3.056733E+00   3.230720E+00   3.438785E+00   3.675859E+00   3.932962E+00   4.187985E+00   4.435622E+00   4.642136E+00   4.792475E+00   4.872545E+00   4.908865E+00   4.864689E+00   4.746713E+00   4.554049E+00   4.323858E+00   4.030158E+00   3.759003E+00   3.508621E+00   3.313987E+00   3.156567E+00   3.022652E+00   2.903757E+00   2.799744E+00   2.721501E+00   2.671329E+00   2.639234E+00   2.636861E+00   2.670507E+00   2.738888E+00   2.823095E+00   2.910178E+00   2.960652E+00   2.976183E+00   2.960285E+00   2.945429E+00   2.944752E+00   2.982774E+00   3.057377E+00   3.184139E+00   3.341039E+00   3.498293E+00   3.626631E+00   3.702439E+00   3.704612E+00   3.642605E+00   3.534162E+00   3.393314E+00   3.236881E+00   3.073279E+00   2.923277E+00   2.787551E+00   2.690446E+00   2.640911E+00   2.635432E+00   2.664471E+00   2.728537E+00   2.799228E+00   2.865432E+00   2.917409E+00   2.930614E+00   2.905507E+00   2.851115E+00   2.781282E+00   2.704597E+00   2.636388E+00   2.599042E+00   2.599036E+00   2.653719E+00   2.769672E+00   2.935678E+00   3.119165E+00   3.298618E+00   3.442068E+00   3.518092E+00   3.534014E+00   3.508378E+00   3.444458E+00   3.340496E+00   3.192486E+00   3.012867E+00   2.849330E+00   2.706677E+00   2.596286E+00   2.518970E+00   2.464579E+00   2.428643E+00   2.405003E+00   2.407245E+00   2.422610E+00   2.448968E+00   2.487097E+00   2.553690E+00   2.622230E+00   2.698610E+00   2.790185E+00   2.883617E+00   3.000960E+00   3.141550E+00   3.320354E+00   3.524518E+00   3.754037E+00   3.992093E+00   4.188284E+00   4.355872E+00   4.461578E+00   4.499852E+00   4.505698E+00   4.485070E+00   4.419088E+00   4.309849E+00   4.154783E+00   4.001887E+00   3.840689E+00   3.702081E+00   3.601306E+00   3.565984E+00   3.585100E+00   3.674709E+00   3.811638E+00   4.004182E+00   4.233001E+00   4.505635E+00   4.816995E+00   5.151921E+00   5.489692E+00   5.837242E+00   6.113342E+00   6.268789E+00   6.251213E+00   6.081806E+00   5.759010E+00   5.355268E+00   4.927767E+00   4.504577E+00   4.098903E+00   3.720245E+00   3.368499E+00   3.066222E+00   2.810983E+00   2.600937E+00   2.445348E+00   2.332183E+00   2.270488E+00   2.254690E+00   2.288030E+00   2.375973E+00   2.523060E+00   2.715065E+00   2.944485E+00   3.190426E+00   3.442804E+00   3.688488E+00   3.912839E+00   4.079411E+00   4.192240E+00   4.246130E+00   4.278921E+00   4.267919E+00   4.247416E+00   4.206205E+00   4.172231E+00   4.134815E+00   4.107669E+00   4.080971E+00   4.088253E+00   4.122549E+00   4.193437E+00   4.300933E+00   4.423683E+00   4.541233E+00   4.623113E+00   4.633998E+00   4.598051E+00   4.522699E+00   4.414660E+00   4.300288E+00   4.189198E+00   4.089351E+00
   3.927780E+00   3.860632E+00   3.788640E+00   3.723222E+00   3.643746E+00   3.575108E+00   3.507226E+00   3.460221E+00   3.412704E+00   3.347826E+00   3.263165E+00   3.164466E+00   3.053246E+00   2.956591E+00   2.865278E+00   2.791818E+00   2.733777E+00   2.716707E+00   2.735186E+00   2.798444E+00   2.882166E+00   2.998165E+00   3.128393E+00   3.293441E+00   3.480786E+00   3.681580E+00   3.901802E+00   4.138408E+00   4.358697E+00   4.559478E+00   4.716371E+00   4.837349E+00   4.929059E+00   4.954673E+00   4.886691E+00   4.749255E+00   4.529069E+00   4.226983E+00   3.908231E+00   3.604190E+00   3.350992E+00   3.144599E+00   2.970833E+00   2.837105E+00   2.728356E+00   2.642875E+00   2.593927E+00   2.572721E+00   2.599933E+00   2.667190E+00   2.776315E+00   2.913562E+00   3.051687E+00   3.166077E+00   3.228057E+00   3.263842E+00   3.281136E+00   3.301025E+00   3.350794E+00   3.445425E+00   3.576266E+00   3.731955E+00   3.893930E+00   4.002144E+00   4.042063E+00   3.994809E+00   3.872097E+00   3.710314E+00   3.517163E+00   3.312555E+00   3.124550E+00   2.945590E+00   2.802509E+00   2.693648E+00   2.638104E+00   2.633335E+00   2.658682E+00   2.715859E+00   2.789011E+00   2.846647E+00   2.888837E+00   2.889602E+00   2.852098E+00   2.789279E+00   2.706148E+00   2.613371E+00   2.526333E+00   2.465174E+00   2.452215E+00   2.497807E+00   2.601715E+00   2.760827E+00   2.955854E+00   3.156258E+00   3.335091E+00   3.460630E+00   3.530416E+00   3.550334E+00   3.522063E+00   3.436528E+00   3.299338E+00   3.143741E+00   2.984343E+00   2.847672E+00   2.743791E+00   2.675518E+00   2.636279E+00   2.606387E+00   2.595108E+00   2.592625E+00   2.609767E+00   2.639850E+00   2.691815E+00   2.751272E+00   2.813494E+00   2.871168E+00   2.921841E+00   2.981480E+00   3.061061E+00   3.169896E+00   3.313940E+00   3.483454E+00   3.679878E+00   3.872358E+00   4.036811E+00   4.143350E+00   4.185672E+00   4.176455E+00   4.163586E+00   4.130041E+00   4.092164E+00   4.017975E+00   3.917607E+00   3.791526E+00   3.648379E+00   3.509372E+00   3.405070E+00   3.358383E+00   3.389026E+00   3.479933E+00   3.632421E+00   3.854243E+00   4.107970E+00   4.401008E+00   4.727261E+00   5.081772E+00   5.440355E+00   5.796908E+00   6.092278E+00   6.274866E+00   6.310351E+00   6.158039E+00   5.832157E+00   5.429689E+00   4.998408E+00   4.558596E+00   4.133079E+00   3.731754E+00   3.385249E+00   3.080607E+00   2.821118E+00   2.606297E+00   2.436997E+00   2.311108E+00   2.234016E+00   2.206167E+00   2.235421E+00   2.314731E+00   2.455633E+00   2.643734E+00   2.873023E+00   3.127538E+00   3.388662E+00   3.643852E+00   3.860553E+00   4.029344E+00   4.142117E+00   4.208560E+00   4.219640E+00   4.215474E+00   4.167470E+00   4.130749E+00   4.083434E+00   4.053068E+00   4.027045E+00   4.033979E+00   4.065445E+00   4.130129E+00   4.237483E+00   4.388355E+00   4.552928E+00   4.687654E+00   4.764371E+00   4.776386E+00   4.729402E+00   4.654753E+00   4.559177E+00   4.432580E+00   4.291540E+00   4.145096E+00
   3.979228E+00   3.956075E+00   3.916085E+00   3.846152E+00   3.787265E+00   3.702311E+00   3.640459E+00   3.585325E+00   3.538671E+00   3.469974E+00   3.374771E+00   3.260888E+00   3.137232E+00   3.032803E+00   2.943218E+00   2.871873E+00   2.819898E+00   2.791145E+00   2.820443E+00   2.883932E+00   2.984894E+00   3.110909E+00   3.237544E+00   3.392035E+00   3.557348E+00   3.740557E+00   3.941830E+00   4.131067E+00   4.331301E+00   4.529155E+00   4.722325E+00   4.876327E+00   4.993999E+00   5.068137E+00   5.074627E+00   4.980354E+00   4.779011E+00   4.475563E+00   4.123888E+00   3.773594E+00   3.476208E+00   3.219298E+00   3.016259E+00   2.855165E+00   2.731630E+00   2.650775E+00   2.602304E+00   2.606511E+00   2.659009E+00   2.753794E+00   2.901638E+00   3.083332E+00   3.264394E+00   3.425025E+00   3.535291E+00   3.600291E+00   3.640327E+00   3.670276E+00   3.741529E+00   3.854614E+00   4.002758E+00   4.173232E+00   4.335350E+00   4.433969E+00   4.437017E+00   4.350601E+00   4.188000E+00   3.979119E+00   3.748784E+00   3.519583E+00   3.294923E+00   3.103794E+00   2.943131E+00   2.832025E+00   2.759232E+00   2.729667E+00   2.734643E+00   2.771142E+00   2.823125E+00   2.865990E+00   2.879528E+00   2.861884E+00   2.807636E+00   2.741020E+00   2.650514E+00   2.550129E+00   2.459485E+00   2.393489E+00   2.381811E+00   2.432089E+00   2.542458E+00   2.698853E+00   2.900369E+00   3.110160E+00   3.316012E+00   3.493892E+00   3.620423E+00   3.673687E+00   3.670156E+00   3.599114E+00   3.483482E+00   3.343590E+00   3.199971E+00   3.071788E+00   2.981902E+00   2.926049E+00   2.895901E+00   2.879631E+00   2.874237E+00   2.873553E+00   2.885818E+00   2.914855E+00   2.965853E+00   3.023064E+00   3.066885E+00   3.108983E+00   3.122718E+00   3.139538E+00   3.171051E+00   3.221539E+00   3.308923E+00   3.421324E+00   3.553705E+00   3.683395E+00   3.774751E+00   3.814448E+00   3.802754E+00   3.771613E+00   3.744242E+00   3.736954E+00   3.735757E+00   3.736346E+00   3.699445E+00   3.620450E+00   3.521490E+00   3.398454E+00   3.291987E+00   3.229809E+00   3.249838E+00   3.343634E+00   3.512865E+00   3.753785E+00   4.030508E+00   4.332808E+00   4.645763E+00   4.978586E+00   5.325689E+00   5.670276E+00   5.978156E+00   6.189987E+00   6.239649E+00   6.110167E+00   5.834461E+00   5.472383E+00   5.047013E+00   4.617086E+00   4.184987E+00   3.797779E+00   3.451009E+00   3.152976E+00   2.899220E+00   2.672802E+00   2.492039E+00   2.356893E+00   2.272327E+00   2.236158E+00   2.257781E+00   2.326906E+00   2.455198E+00   2.631698E+00   2.853653E+00   3.110660E+00   3.385449E+00   3.642507E+00   3.848109E+00   3.999232E+00   4.091507E+00   4.130977E+00   4.141998E+00   4.115619E+00   4.074054E+00   4.032013E+00   3.994959E+00   3.959897E+00   3.949523E+00   3.955051E+00   4.000566E+00   4.076025E+00   4.202961E+00   4.372253E+00   4.537191E+00   4.675691E+00   4.759240E+00   4.768348E+00   4.728205E+00   4.656020E+00   4.566945E+00   4.446609E+00   4.311329E+00   4.159035E+00
   4.043898E+00   4.084160E+00   4.071427E+00   4.037292E+00   3.960932E+00   3.885126E+00   3.813672E+00   3.759562E+00   3.693112E+00   3.604217E+00   3.480199E+00   3.350319E+00   3.221509E+00   3.114295E+00   3.027856E+00   2.968697E+00   2.913847E+00   2.901171E+00   2.924616E+00   2.989377E+00   3.088524E+00   3.214823E+00   3.342497E+00   3.479132E+00   3.627760E+00   3.797934E+00   3.966279E+00   4.148253E+00   4.342350E+00   4.552289E+00   4.756793E+00   4.955113E+00   5.105562E+00   5.217917E+00   5.244154E+00   5.180404E+00   5.009339E+00   4.736535E+00   4.380758E+00   4.003961E+00   3.651876E+00   3.363868E+00   3.126834E+00   2.945218E+00   2.819778E+00   2.736007E+00   2.707247E+00   2.717004E+00   2.787468E+00   2.909187E+00   3.080574E+00   3.272442E+00   3.458199E+00   3.628393E+00   3.747963E+00   3.826133E+00   3.874302E+00   3.940886E+00   4.035882E+00   4.175333E+00   4.366281E+00   4.565544E+00   4.748468E+00   4.855412E+00   4.846902E+00   4.723312E+00   4.529536E+00   4.300668E+00   4.056249E+00   3.804944E+00   3.577167E+00   3.377918E+00   3.201013E+00   3.064848E+00   2.967181E+00   2.904882E+00   2.885175E+00   2.879703E+00   2.895292E+00   2.903941E+00   2.899047E+00   2.858242E+00   2.797755E+00   2.723381E+00   2.642252E+00   2.554559E+00   2.475243E+00   2.430228E+00   2.431040E+00   2.496653E+00   2.613325E+00   2.781756E+00   2.975658E+00   3.193101E+00   3.411909E+00   3.607730E+00   3.763005E+00   3.837553E+00   3.842434E+00   3.784238E+00   3.672224E+00   3.546445E+00   3.415594E+00   3.298470E+00   3.212309E+00   3.164557E+00   3.148900E+00   3.143804E+00   3.148187E+00   3.160192E+00   3.179264E+00   3.207996E+00   3.260715E+00   3.311513E+00   3.341027E+00   3.346425E+00   3.325093E+00   3.288376E+00   3.258779E+00   3.245408E+00   3.260135E+00   3.298300E+00   3.354638E+00   3.410282E+00   3.442449E+00   3.444345E+00   3.415253E+00   3.382308E+00   3.375127E+00   3.390329E+00   3.445022E+00   3.502977E+00   3.535827E+00   3.519375E+00   3.462267E+00   3.369896E+00   3.284706E+00   3.228127E+00   3.243204E+00   3.322665E+00   3.491141E+00   3.741790E+00   4.034454E+00   4.338891E+00   4.636590E+00   4.931939E+00   5.240070E+00   5.557266E+00   5.847005E+00   6.059841E+00   6.143409E+00   6.063037E+00   5.840133E+00   5.501679E+00   5.102400E+00   4.675130E+00   4.269340E+00   3.885667E+00   3.559714E+00   3.277644E+00   3.027960E+00   2.793331E+00   2.600626E+00   2.452126E+00   2.351835E+00   2.308841E+00   2.313827E+00   2.382242E+00   2.499411E+00   2.668671E+00   2.871581E+00   3.122322E+00   3.384642E+00   3.626899E+00   3.814334E+00   3.943323E+00   4.011241E+00   4.035047E+00   4.031221E+00   3.989666E+00   3.960371E+00   3.940630E+00   3.914603E+00   3.893036E+00   3.875547E+00   3.878243E+00   3.913864E+00   3.978891E+00   4.088388E+00   4.229275E+00   4.381845E+00   4.501004E+00   4.581632E+00   4.594253E+00   4.575925E+00   4.527651E+00   4.442818E+00   4.360832E+00   4.255111E+00   4.139248E+00
   4.118134E+00   4.210722E+00   4.262619E+00   4.249943E+00   4.208431E+00   4.125084E+00   4.065129E+00   3.997351E+00   3.909223E+00   3.779599E+00   3.618755E+00   3.458996E+00   3.315387E+00   3.196755E+00   3.115775E+00   3.068274E+00   3.036282E+00   3.024566E+00   3.037718E+00   3.091315E+00   3.170839E+00   3.276593E+00   3.403975E+00   3.532405E+00   3.672842E+00   3.816985E+00   3.980585E+00   4.160130E+00   4.384009E+00   4.596920E+00   4.814333E+00   5.006408E+00   5.181985E+00   5.289774E+00   5.336305E+00   5.285530E+00   5.156429E+00   4.925255E+00   4.611757E+00   4.239513E+00   3.877703E+00   3.554457E+00   3.295320E+00   3.101372E+00   2.960034E+00   2.877471E+00   2.847173E+00   2.876929E+00   2.957956E+00   3.078521E+00   3.238434E+00   3.413893E+00   3.595556E+00   3.736448E+00   3.842714E+00   3.909877E+00   3.973213E+00   4.057831E+00   4.187216E+00   4.375937E+00   4.611257E+00   4.858448E+00   5.050639E+00   5.163927E+00   5.161143E+00   5.043338E+00   4.842075E+00   4.609523E+00   4.365223E+00   4.126894E+00   3.916038E+00   3.719354E+00   3.534103E+00   3.381159E+00   3.237462E+00   3.137185E+00   3.067140E+00   3.019156E+00   2.985629E+00   2.954797E+00   2.920043E+00   2.866525E+00   2.803960E+00   2.741602E+00   2.668920E+00   2.616300E+00   2.575690E+00   2.565599E+00   2.601014E+00   2.681610E+00   2.828696E+00   3.010512E+00   3.222868E+00   3.449826E+00   3.653317E+00   3.812690E+00   3.942763E+00   4.020072E+00   4.008652E+00   3.951869E+00   3.841161E+00   3.725909E+00   3.609697E+00   3.506014E+00   3.425512E+00   3.373147E+00   3.342700E+00   3.343921E+00   3.354493E+00   3.380164E+00   3.413766E+00   3.449948E+00   3.492870E+00   3.513715E+00   3.511834E+00   3.486744E+00   3.433470E+00   3.359021E+00   3.270883E+00   3.190443E+00   3.133175E+00   3.100719E+00   3.091680E+00   3.086583E+00   3.077655E+00   3.064626E+00   3.046397E+00   3.046703E+00   3.070000E+00   3.129207E+00   3.219980E+00   3.329977E+00   3.413512E+00   3.460994E+00   3.454282E+00   3.416066E+00   3.354851E+00   3.319915E+00   3.334041E+00   3.425225E+00   3.583589E+00   3.818253E+00   4.091150E+00   4.376309E+00   4.642827E+00   4.915181E+00   5.189217E+00   5.481907E+00   5.739329E+00   5.936955E+00   6.020979E+00   5.969289E+00   5.783247E+00   5.506551E+00   5.158167E+00   4.773665E+00   4.398362E+00   4.036727E+00   3.707391E+00   3.424811E+00   3.168848E+00   2.935876E+00   2.729219E+00   2.576420E+00   2.472495E+00   2.422716E+00   2.430487E+00   2.485149E+00   2.601575E+00   2.751726E+00   2.948537E+00   3.172553E+00   3.408697E+00   3.626457E+00   3.803620E+00   3.900707E+00   3.954951E+00   3.968307E+00   3.953048E+00   3.917513E+00   3.892887E+00   3.872664E+00   3.862243E+00   3.836255E+00   3.818114E+00   3.802612E+00   3.816022E+00   3.857554E+00   3.934160E+00   4.037975E+00   4.145403E+00   4.244099E+00   4.295562E+00   4.320880E+00   4.320928E+00   4.298341E+00   4.258418E+00   4.217270E+00   4.165451E+00   4.084833E+00