# LPF package for  MODFLOW-2005, generated by Flopy.
         0    -1E+30         0  
         0
         0
   1.000000E+00
         0
         0
INTERNAL               1 (200E15.6) -1 #hk layer 1                    
   3.962809E+00   3.935300E+00   3.904666E+00   3.862668E+00   3.833930E+00   3.813508E+00   3.802155E+00   3.789415E+00   3.787798E+00   3.761532E+00   3.732090E+00   3.689058E+00   3.641822E+00   3.585412E+00   3.527813E+00   3.488909E+00   3.471402E+00   3.475728E+00   3.487998E+00   3.515112E+00   3.555635E+00   3.610371E+00   3.676405E+00   3.769922E+00   3.856616E+00   3.942809E+00   4.024188E+00   4.102768E+00   4.173513E+00   4.229006E+00   4.263593E+00   4.278269E+00   4.262585E+00   4.208864E+00   4.144244E+00   4.061167E+00   3.983788E+00   3.902636E+00   3.837475E+00   3.780573E+00   3.734531E+00   3.705189E+00   3.677823E+00   3.641624E+00   3.612303E+00   3.596370E+00   3.598003E+00   3.596562E+00   3.597172E+00   3.587797E+00   3.566010E+00   3.538606E+00   3.502748E+00   3.461067E+00   3.425333E+00   3.380591E+00   3.348280E+00   3.330849E+00   3.342816E+00   3.384997E+00   3.438098E+00   3.508852E+00   3.589177E+00   3.667712E+00   3.725055E+00   3.774302E+00   3.803867E+00   3.824091E+00   3.826033E+00   3.806091E+00   3.768664E+00   3.724279E+00   3.683905E+00   3.658848E+00   3.654744E+00   3.647178E+00   3.655442E+00   3.651745E+00   3.644552E+00   3.635128E+00   3.635726E+00   3.623707E+00   3.611368E+00   3.599421E+00   3.583030E+00   3.572182E+00   3.569961E+00   3.582279E+00   3.598241E+00   3.649037E+00   3.714910E+00   3.790917E+00   3.863291E+00   3.918331E+00   3.938059E+00   3.934279E+00   3.911780E+00   3.868143E+00   3.820163E+00   3.755199E+00   3.688761E+00   3.614319E+00   3.538779E+00   3.483490E+00   3.436768E+00   3.398583E+00   3.375422E+00   3.354335E+00   3.352397E+00   3.340880E+00   3.328612E+00   3.308926E+00   3.299342E+00   3.305024E+00   3.313872E+00   3.344033E+00   3.403449E+00   3.481962E+00   3.577482E+00   3.681957E+00   3.773195E+00   3.873442E+00   3.963070E+00   4.047381E+00   4.127087E+00   4.192585E+00   4.268178E+00   4.325129E+00   4.356733E+00   4.372997E+00   4.360158E+00   4.335495E+00   4.308267E+00   4.267466E+00   4.212832E+00   4.168899E+00   4.110884E+00   4.072148E+00   4.050247E+00   4.051373E+00   4.074064E+00   4.106622E+00   4.158604E+00   4.213120E+00   4.279316E+00   4.348907E+00   4.431202E+00   4.525013E+00   4.590567E+00   4.616820E+00   4.595763E+00   4.545300E+00   4.457871E+00   4.370968E+00   4.269312E+00   4.164089E+00   4.064133E+00   3.962234E+00   3.866641E+00   3.760864E+00   3.673681E+00   3.573184E+00   3.493931E+00   3.440109E+00   3.401965E+00   3.385181E+00   3.389217E+00   3.415283E+00   3.461472E+00   3.544979E+00   3.647833E+00   3.756936E+00   3.870695E+00   3.969706E+00   4.043580E+00   4.094831E+00   4.129420E+00   4.160815E+00   4.187308E+00   4.202345E+00   4.222150E+00   4.238225E+00   4.251597E+00   4.250271E+00   4.238764E+00   4.202049E+00   4.152951E+00   4.089802E+00   4.031947E+00   3.993536E+00   3.975493E+00   3.977345E+00   3.985276E+00   4.000311E+00   4.005149E+00   4.010201E+00   4.009890E+00   3.991139E+00   3.983146E+00   3.979261E+00
   3.931123E+00   3.887791E+00   3.829877E+00   3.762710E+00   3.694665E+00   3.655643E+00   3.623648E+00   3.599873E+00   3.585605E+00   3.569188E+00   3.518309E+00   3.459066E+00   3.366402E+00   3.277784E+00   3.189206E+00   3.124520E+00   3.088310E+00   3.089674E+00   3.109115E+00   3.146195E+00   3.207201E+00   3.295089E+00   3.409159E+00   3.546463E+00   3.701602E+00   3.869715E+00   4.044523E+00   4.213223E+00   4.364183E+00   4.477095E+00   4.543008E+00   4.578768E+00   4.539697E+00   4.450249E+00   4.314130E+00   4.167243E+00   4.017216E+00   3.866767E+00   3.721554E+00   3.617541E+00   3.532375E+00   3.477864E+00   3.426901E+00   3.378419E+00   3.327179E+00   3.299653E+00   3.291653E+00   3.285769E+00   3.283087E+00   3.269703E+00   3.242174E+00   3.198330E+00   3.152159E+00   3.091833E+00   3.019435E+00   2.953254E+00   2.904989E+00   2.881637E+00   2.897172E+00   2.956182E+00   3.048635E+00   3.177794E+00   3.316800E+00   3.439714E+00   3.541200E+00   3.620490E+00   3.660025E+00   3.671077E+00   3.654677E+00   3.607895E+00   3.536910E+00   3.463134E+00   3.394902E+00   3.346649E+00   3.318272E+00   3.305744E+00   3.306764E+00   3.317250E+00   3.330722E+00   3.344619E+00   3.346127E+00   3.339619E+00   3.320243E+00   3.291521E+00   3.255526E+00   3.224105E+00   3.214277E+00   3.223259E+00   3.256950E+00   3.326760E+00   3.449588E+00   3.571627E+00   3.708097E+00   3.808183E+00   3.860902E+00   3.865921E+00   3.817501E+00   3.748177E+00   3.658908E+00   3.553138E+00   3.436120E+00   3.309289E+00   3.182775E+00   3.082030E+00   3.002737E+00   2.939559E+00   2.899044E+00   2.875625E+00   2.857913E+00   2.842693E+00   2.823197E+00   2.810594E+00   2.814597E+00   2.824102E+00   2.855857E+00   2.913360E+00   2.997089E+00   3.108516E+00   3.251878E+00   3.408363E+00   3.571122E+00   3.748680E+00   3.920108E+00   4.087063E+00   4.236425E+00   4.381880E+00   4.511745E+00   4.608153E+00   4.648713E+00   4.659143E+00   4.639143E+00   4.593604E+00   4.519030E+00   4.415516E+00   4.309374E+00   4.212281E+00   4.139845E+00   4.086423E+00   4.073471E+00   4.088296E+00   4.138641E+00   4.222467E+00   4.297121E+00   4.406721E+00   4.525694E+00   4.680859E+00   4.854548E+00   5.037880E+00   5.182618E+00   5.230422E+00   5.195457E+00   5.072698E+00   4.905267E+00   4.710519E+00   4.497509E+00   4.284800E+00   4.077382E+00   3.883723E+00   3.689657E+00   3.513319E+00   3.339293E+00   3.195111E+00   3.067232E+00   2.986336E+00   2.935882E+00   2.911035E+00   2.919267E+00   2.971811E+00   3.068485E+00   3.208163E+00   3.374168E+00   3.558404E+00   3.746735E+00   3.909874E+00   4.045808E+00   4.142408E+00   4.213367E+00   4.270726E+00   4.313049E+00   4.347870E+00   4.379102E+00   4.414427E+00   4.424706E+00   4.419881E+00   4.381714E+00   4.328385E+00   4.247482E+00   4.152781E+00   4.068204E+00   4.004780E+00   4.003911E+00   4.018820E+00   4.044845E+00   4.059577E+00   4.057984E+00   4.054759E+00   4.036817E+00   4.011703E+00   3.986660E+00   3.982287E+00
   3.911484E+00   3.831583E+00   3.749217E+00   3.665448E+00   3.598544E+00   3.527629E+00   3.482183E+00   3.448281E+00   3.426462E+00   3.389932E+00   3.342376E+00   3.261666E+00   3.174716E+00   3.070669E+00   2.974748E+00   2.897435E+00   2.853468E+00   2.846184E+00   2.866448E+00   2.912750E+00   2.976756E+00   3.079465E+00   3.216073E+00   3.387875E+00   3.577332E+00   3.793686E+00   4.038316E+00   4.276943E+00   4.495789E+00   4.657810E+00   4.768646E+00   4.801766E+00   4.763157E+00   4.653034E+00   4.500938E+00   4.293348E+00   4.082734E+00   3.863594E+00   3.680405E+00   3.529006E+00   3.416353E+00   3.325614E+00   3.259406E+00   3.194763E+00   3.127170E+00   3.063911E+00   3.039277E+00   3.014219E+00   3.012256E+00   3.011213E+00   3.004659E+00   2.979471E+00   2.953373E+00   2.898066E+00   2.834985E+00   2.772929E+00   2.718144E+00   2.692195E+00   2.710070E+00   2.779490E+00   2.893999E+00   3.038877E+00   3.197199E+00   3.348026E+00   3.465443E+00   3.536852E+00   3.565734E+00   3.555000E+00   3.505568E+00   3.429813E+00   3.323848E+00   3.222718E+00   3.129797E+00   3.063034E+00   3.021064E+00   3.000776E+00   3.008667E+00   3.033446E+00   3.074556E+00   3.111052E+00   3.131003E+00   3.131401E+00   3.116587E+00   3.074129E+00   3.034317E+00   2.993324E+00   2.965002E+00   2.957795E+00   2.984612E+00   3.066841E+00   3.196422E+00   3.362234E+00   3.523915E+00   3.667921E+00   3.738839E+00   3.748480E+00   3.707762E+00   3.629725E+00   3.533726E+00   3.403382E+00   3.255786E+00   3.101829E+00   2.953082E+00   2.817299E+00   2.714453E+00   2.633882E+00   2.576786E+00   2.543759E+00   2.525995E+00   2.512398E+00   2.502487E+00   2.501285E+00   2.520616E+00   2.552541E+00   2.595419E+00   2.672036E+00   2.769216E+00   2.892593E+00   3.056137E+00   3.237067E+00   3.429943E+00   3.652946E+00   3.878132E+00   4.097915E+00   4.299523E+00   4.472390E+00   4.633270E+00   4.738640E+00   4.800555E+00   4.799518E+00   4.754836E+00   4.666598E+00   4.541440E+00   4.402914E+00   4.262231E+00   4.144727E+00   4.046740E+00   4.001792E+00   3.997383E+00   4.042532E+00   4.127685E+00   4.226591E+00   4.359053E+00   4.514680E+00   4.710510E+00   4.934318E+00   5.204572E+00   5.454943E+00   5.643003E+00   5.717023E+00   5.675036E+00   5.512558E+00   5.265665E+00   4.981348E+00   4.677522E+00   4.377840E+00   4.084714E+00   3.801124E+00   3.529125E+00   3.281381E+00   3.065671E+00   2.875512E+00   2.743257E+00   2.652180E+00   2.600368E+00   2.586824E+00   2.616887E+00   2.692867E+00   2.816182E+00   2.983948E+00   3.191718E+00   3.408357E+00   3.631941E+00   3.836047E+00   4.016219E+00   4.145970E+00   4.243536E+00   4.309276E+00   4.361256E+00   4.399768E+00   4.422713E+00   4.430150E+00   4.437019E+00   4.415214E+00   4.373715E+00   4.306043E+00   4.231331E+00   4.167053E+00   4.107339E+00   4.083016E+00   4.095411E+00   4.140399E+00   4.191213E+00   4.206213E+00   4.196192E+00   4.158027E+00   4.116483E+00   4.075959E+00   4.039208E+00   4.009593E+00
   3.896429E+00   3.808142E+00   3.706759E+00   3.617238E+00   3.544179E+00   3.483460E+00   3.426462E+00   3.386348E+00   3.348567E+00   3.304999E+00   3.237716E+00   3.162146E+00   3.060516E+00   2.958761E+00   2.861207E+00   2.788362E+00   2.738248E+00   2.722372E+00   2.739178E+00   2.785893E+00   2.847353E+00   2.944586E+00   3.081609E+00   3.264227E+00   3.476773E+00   3.718621E+00   3.984047E+00   4.265363E+00   4.517194E+00   4.717028E+00   4.851066E+00   4.916420E+00   4.878432E+00   4.797523E+00   4.627851E+00   4.408282E+00   4.160035E+00   3.904903E+00   3.671708E+00   3.492586E+00   3.348032E+00   3.229251E+00   3.124871E+00   3.028564E+00   2.943967E+00   2.873256E+00   2.827331E+00   2.791604E+00   2.786785E+00   2.800297E+00   2.825148E+00   2.848146E+00   2.864434E+00   2.863687E+00   2.830441E+00   2.785100E+00   2.741899E+00   2.726387E+00   2.749156E+00   2.821838E+00   2.941466E+00   3.095814E+00   3.256409E+00   3.401611E+00   3.504656E+00   3.551232E+00   3.541029E+00   3.483128E+00   3.396889E+00   3.283606E+00   3.157863E+00   3.024822E+00   2.914419E+00   2.824895E+00   2.781231E+00   2.772038E+00   2.795222E+00   2.835690E+00   2.895471E+00   2.947316E+00   2.992007E+00   3.008027E+00   2.995785E+00   2.955084E+00   2.894149E+00   2.836963E+00   2.786745E+00   2.764354E+00   2.783959E+00   2.851910E+00   2.984864E+00   3.145468E+00   3.331544E+00   3.491984E+00   3.600840E+00   3.640406E+00   3.616427E+00   3.548547E+00   3.453584E+00   3.323518E+00   3.168994E+00   2.995674E+00   2.832756E+00   2.694791E+00   2.574046E+00   2.487996E+00   2.434135E+00   2.393740E+00   2.381154E+00   2.367140E+00   2.370756E+00   2.385326E+00   2.416056E+00   2.466313E+00   2.530132E+00   2.616425E+00   2.714607E+00   2.835751E+00   2.982098E+00   3.155161E+00   3.350374E+00   3.571462E+00   3.813507E+00   4.059263E+00   4.280797E+00   4.464292E+00   4.608902E+00   4.704089E+00   4.741566E+00   4.728922E+00   4.662135E+00   4.551528E+00   4.399979E+00   4.236027E+00   4.082263E+00   3.944507E+00   3.856298E+00   3.807106E+00   3.816034E+00   3.887313E+00   4.004752E+00   4.149530E+00   4.328665E+00   4.553014E+00   4.810783E+00   5.113886E+00   5.421641E+00   5.736723E+00   5.978286E+00   6.084391E+00   6.043595E+00   5.855620E+00   5.551080E+00   5.188536E+00   4.810377E+00   4.452099E+00   4.092848E+00   3.748808E+00   3.425283E+00   3.138721E+00   2.889562E+00   2.700830E+00   2.550952E+00   2.445400E+00   2.391790E+00   2.380540E+00   2.413044E+00   2.497823E+00   2.634316E+00   2.831460E+00   3.050215E+00   3.292176E+00   3.532152E+00   3.766721E+00   3.958244E+00   4.113249E+00   4.209407E+00   4.281578E+00   4.319091E+00   4.339187E+00   4.337106E+00   4.334558E+00   4.302589E+00   4.280420E+00   4.230940E+00   4.188912E+00   4.154682E+00   4.129189E+00   4.138256E+00   4.184763E+00   4.258442E+00   4.340585E+00   4.393731E+00   4.415395E+00   4.385901E+00   4.323204E+00   4.236952E+00   4.156006E+00   4.091962E+00   4.036533E+00
   3.901812E+00   3.809927E+00   3.713189E+00   3.630389E+00   3.558714E+00   3.493178E+00   3.438279E+00   3.386819E+00   3.350279E+00   3.288970E+00   3.216623E+00   3.121828E+00   3.023716E+00   2.922948E+00   2.831613E+00   2.753480E+00   2.702102E+00   2.679170E+00   2.700257E+00   2.743052E+00   2.818151E+00   2.927036E+00   3.056753E+00   3.230761E+00   3.438853E+00   3.675962E+00   3.933110E+00   4.188182E+00   4.435871E+00   4.642437E+00   4.792829E+00   4.872942E+00   4.909302E+00   4.865164E+00   4.747223E+00   4.554586E+00   4.324415E+00   4.030713E+00   3.759545E+00   3.509140E+00   3.314483E+00   3.157034E+00   3.023085E+00   2.904151E+00   2.800099E+00   2.721821E+00   2.671619E+00   2.639502E+00   2.637118E+00   2.670768E+00   2.739162E+00   2.823396E+00   2.910517E+00   2.961035E+00   2.976607E+00   2.960740E+00   2.945908E+00   2.945246E+00   2.983283E+00   3.057903E+00   3.184682E+00   3.341595E+00   3.498857E+00   3.627194E+00   3.702996E+00   3.705161E+00   3.643147E+00   3.534695E+00   3.393838E+00   3.237395E+00   3.073778E+00   2.923758E+00   2.788005E+00   2.690871E+00   2.641315E+00   2.635827E+00   2.664866E+00   2.728938E+00   2.799635E+00   2.865839E+00   2.917813E+00   2.931009E+00   2.905883E+00   2.851468E+00   2.781604E+00   2.704883E+00   2.636630E+00   2.599241E+00   2.599194E+00   2.653839E+00   2.769759E+00   2.935736E+00   3.119206E+00   3.298651E+00   3.442103E+00   3.518129E+00   3.534053E+00   3.508414E+00   3.444487E+00   3.340506E+00   3.192476E+00   3.012833E+00   2.849271E+00   2.706592E+00   2.596175E+00   2.518830E+00   2.464411E+00   2.428450E+00   2.404793E+00   2.407025E+00   2.422390E+00   2.448755E+00   2.486895E+00   2.553496E+00   2.622043E+00   2.698426E+00   2.790002E+00   2.883431E+00   3.000770E+00   3.141360E+00   3.320170E+00   3.524348E+00   3.753893E+00   3.991992E+00   4.188231E+00   4.355863E+00   4.461599E+00   4.499883E+00   4.505716E+00   4.485057E+00   4.419025E+00   4.309733E+00   4.154613E+00   4.001666E+00   3.840417E+00   3.701766E+00   3.600956E+00   3.565607E+00   3.584694E+00   3.674275E+00   3.811181E+00   4.003702E+00   4.232491E+00   4.505089E+00   4.816401E+00   5.151281E+00   5.489014E+00   5.836547E+00   6.112667E+00   6.268188E+00   6.250739E+00   6.081481E+00   5.758834E+00   5.355225E+00   4.927832E+00   4.504733E+00   4.099129E+00   3.720517E+00   3.368804E+00   3.066552E+00   2.811334E+00   2.601308E+00   2.445740E+00   2.332595E+00   2.270924E+00   2.255153E+00   2.288525E+00   2.376502E+00   2.523629E+00   2.715672E+00   2.945128E+00   3.191096E+00   3.443483E+00   3.689150E+00   3.913456E+00   4.079953E+00   4.192682E+00   4.246460E+00   4.279141E+00   4.268039E+00   4.247450E+00   4.206161E+00   4.172121E+00   4.134649E+00   4.107451E+00   4.080707E+00   4.087953E+00   4.122218E+00   4.193082E+00   4.300565E+00   4.423312E+00   4.540860E+00   4.622746E+00   4.633646E+00   4.597731E+00   4.522420E+00   4.414433E+00   4.300119E+00   4.189089E+00   4.089299E+00
   3.927753E+00   3.860578E+00   3.788561E+00   3.723113E+00   3.643610E+00   3.574941E+00   3.507027E+00   3.459990E+00   3.412449E+00   3.347557E+00   3.262894E+00   3.164201E+00   3.052991E+00   2.956349E+00   2.865057E+00   2.791629E+00   2.733623E+00   2.716587E+00   2.735097E+00   2.798383E+00   2.882130E+00   2.998153E+00   3.128407E+00   3.293483E+00   3.480860E+00   3.681695E+00   3.901961E+00   4.138616E+00   4.358955E+00   4.559791E+00   4.716729E+00   4.837745E+00   4.929486E+00   4.955137E+00   4.887187E+00   4.749793E+00   4.529636E+00   4.227561E+00   3.908800E+00   3.604738E+00   3.351513E+00   3.145092E+00   2.971291E+00   2.837526E+00   2.728745E+00   2.643233E+00   2.594260E+00   2.573032E+00   2.600238E+00   2.667497E+00   2.776642E+00   2.913925E+00   3.052101E+00   3.166548E+00   3.228579E+00   3.264403E+00   3.281720E+00   3.301625E+00   3.351411E+00   3.446060E+00   3.576914E+00   3.732610E+00   3.894582E+00   4.002780E+00   4.042676E+00   3.995399E+00   3.872659E+00   3.710850E+00   3.517674E+00   3.313046E+00   3.125022E+00   2.946042E+00   2.802939E+00   2.694056E+00   2.638498E+00   2.633725E+00   2.659073E+00   2.716256E+00   2.789413E+00   2.847052E+00   2.889239E+00   2.889991E+00   2.852462E+00   2.789610E+00   2.706439E+00   2.613619E+00   2.526534E+00   2.465332E+00   2.452333E+00   2.497892E+00   2.601768E+00   2.760853E+00   2.955860E+00   3.156256E+00   3.335090E+00   3.460636E+00   3.530429E+00   3.550356E+00   3.522086E+00   3.436546E+00   3.299342E+00   3.143728E+00   2.984308E+00   2.847611E+00   2.743696E+00   2.675386E+00   2.636110E+00   2.606184E+00   2.594879E+00   2.592381E+00   2.609515E+00   2.639600E+00   2.691570E+00   2.751034E+00   2.813261E+00   2.870942E+00   2.921622E+00   2.981266E+00   3.060849E+00   3.169688E+00   3.313741E+00   3.483272E+00   3.679727E+00   3.872252E+00   4.036755E+00   4.143335E+00   4.185682E+00   4.176469E+00   4.163583E+00   4.130000E+00   4.092070E+00   4.017816E+00   3.917387E+00   3.791252E+00   3.648059E+00   3.509013E+00   3.404684E+00   3.357972E+00   3.388588E+00   3.479460E+00   3.631919E+00   3.853698E+00   4.107379E+00   4.400364E+00   4.726562E+00   5.081015E+00   5.439552E+00   5.796079E+00   6.091463E+00   6.274125E+00   6.309745E+00   6.157613E+00   5.831915E+00   5.429608E+00   4.998459E+00   4.558754E+00   4.133316E+00   3.732044E+00   3.385576E+00   3.080960E+00   2.821492E+00   2.606689E+00   2.437406E+00   2.311535E+00   2.234462E+00   2.206638E+00   2.235922E+00   2.315265E+00   2.456207E+00   2.644344E+00   2.873665E+00   3.128205E+00   3.389335E+00   3.644509E+00   3.861162E+00   4.029877E+00   4.142550E+00   4.208879E+00   4.219840E+00   4.215567E+00   4.167467E+00   4.130664E+00   4.083282E+00   4.052860E+00   4.026788E+00   4.033678E+00   4.065104E+00   4.129758E+00   4.237089E+00   4.387950E+00   4.552521E+00   4.687253E+00   4.763981E+00   4.776018E+00   4.729067E+00   4.654461E+00   4.558939E+00   4.432404E+00   4.291427E+00   4.145042E+00
   3.979204E+00   3.956026E+00   3.916010E+00   3.846047E+00   3.787126E+00   3.702139E+00   3.640252E+00   3.585087E+00   3.538407E+00   3.469694E+00   3.374489E+00   3.260611E+00   3.136963E+00   3.032544E+00   2.942977E+00   2.871661E+00   2.819720E+00   2.791003E+00   2.820333E+00   2.883851E+00   2.984841E+00   3.110883E+00   3.237549E+00   3.392072E+00   3.557417E+00   3.740661E+00   3.941973E+00   4.131253E+00   4.331531E+00   4.529430E+00   4.722640E+00   4.876667E+00   4.994367E+00   5.068533E+00   5.075066E+00   4.980839E+00   4.779544E+00   4.476119E+00   4.124450E+00   3.774135E+00   3.476727E+00   3.219787E+00   3.016720E+00   2.855595E+00   2.732033E+00   2.651152E+00   2.602659E+00   2.606849E+00   2.659342E+00   2.754136E+00   2.902008E+00   3.083750E+00   3.264872E+00   3.425565E+00   3.535888E+00   3.600929E+00   3.640994E+00   3.670960E+00   3.742232E+00   3.855337E+00   4.003493E+00   4.173964E+00   4.336069E+00   4.434655E+00   4.437659E+00   4.351196E+00   4.188548E+00   3.979622E+00   3.749251E+00   3.520026E+00   3.295343E+00   3.104199E+00   2.943523E+00   2.832406E+00   2.759606E+00   2.730037E+00   2.735009E+00   2.771508E+00   2.823493E+00   2.866355E+00   2.879886E+00   2.862225E+00   2.807945E+00   2.741291E+00   2.650743E+00   2.550316E+00   2.459628E+00   2.393595E+00   2.381884E+00   2.432131E+00   2.542469E+00   2.698836E+00   2.900335E+00   3.110115E+00   3.315968E+00   3.493857E+00   3.620403E+00   3.673686E+00   3.670173E+00   3.599140E+00   3.483510E+00   3.343610E+00   3.199974E+00   3.071761E+00   2.981837E+00   2.925944E+00   2.895755E+00   2.879445E+00   2.874019E+00   2.873311E+00   2.885559E+00   2.914587E+00   2.965582E+00   3.022792E+00   3.066619E+00   3.108723E+00   3.122468E+00   3.139297E+00   3.170818E+00   3.221318E+00   3.308715E+00   3.421138E+00   3.553549E+00   3.683278E+00   3.774678E+00   3.814410E+00   3.802733E+00   3.771591E+00   3.744199E+00   3.736867E+00   3.735612E+00   3.736136E+00   3.699175E+00   3.620129E+00   3.521123E+00   3.398053E+00   3.291563E+00   3.229365E+00   3.249368E+00   3.343134E+00   3.512326E+00   3.753195E+00   4.029854E+00   4.332093E+00   4.644985E+00   4.977748E+00   5.324804E+00   5.669364E+00   5.977255E+00   6.189151E+00   6.238951E+00   6.109645E+00   5.834132E+00   5.472231E+00   5.047011E+00   4.617203E+00   4.185191E+00   3.798048E+00   3.451324E+00   3.153327E+00   2.899597E+00   2.673198E+00   2.492452E+00   2.357322E+00   2.272776E+00   2.236625E+00   2.258272E+00   2.327425E+00   2.455754E+00   2.632290E+00   2.854279E+00   3.111310E+00   3.386107E+00   3.643146E+00   3.848699E+00   3.999739E+00   4.091910E+00   4.131262E+00   4.142165E+00   4.115676E+00   4.074013E+00   4.031888E+00   3.994766E+00   3.959649E+00   3.949230E+00   3.954719E+00   4.000200E+00   4.075632E+00   4.202548E+00   4.371831E+00   4.536773E+00   4.675279E+00   4.758841E+00   4.767974E+00   4.727870E+00   4.655730E+00   4.566711E+00   4.446438E+00   4.311219E+00   4.158983E+00
   4.043869E+00   4.084105E+00   4.071343E+00   4.037175E+00   3.960783E+00   3.884945E+00   3.813456E+00   3.759315E+00   3.692841E+00   3.603936E+00   3.479918E+00   3.350045E+00   3.221244E+00   3.114043E+00   3.027620E+00   2.968483E+00   2.913665E+00   2.901022E+00   2.924498E+00   2.989286E+00   3.088460E+00   3.214787E+00   3.342494E+00   3.479161E+00   3.627815E+00   3.798015E+00   3.966388E+00   4.148391E+00   4.342515E+00   4.552486E+00   4.757012E+00   4.955353E+00   5.105822E+00   5.218204E+00   5.244476E+00   5.180775E+00   5.009761E+00   4.737000E+00   4.381245E+00   4.004457E+00   3.652360E+00   3.364332E+00   3.127276E+00   2.945638E+00   2.820172E+00   2.736378E+00   2.707600E+00   2.717345E+00   2.787807E+00   2.909539E+00   3.080961E+00   3.272880E+00   3.458696E+00   3.628952E+00   3.748579E+00   3.826794E+00   3.874995E+00   3.941605E+00   4.036621E+00   4.176094E+00   4.367054E+00   4.566313E+00   4.749207E+00   4.856101E+00   4.847527E+00   4.723872E+00   4.530030E+00   4.301103E+00   4.056639E+00   3.805304E+00   3.577509E+00   3.378253E+00   3.201344E+00   3.065179E+00   2.967510E+00   2.905208E+00   2.885494E+00   2.880014E+00   2.895597E+00   2.904235E+00   2.899326E+00   2.858495E+00   2.797974E+00   2.723564E+00   2.642399E+00   2.554671E+00   2.475323E+00   2.430280E+00   2.431067E+00   2.496656E+00   2.613302E+00   2.781709E+00   2.975590E+00   3.193022E+00   3.411829E+00   3.607661E+00   3.762955E+00   3.837535E+00   3.842448E+00   3.784277E+00   3.672277E+00   3.546501E+00   3.415639E+00   3.298491E+00   3.212294E+00   3.164501E+00   3.148802E+00   3.143665E+00   3.148010E+00   3.159981E+00   3.179025E+00   3.207734E+00   3.260434E+00   3.311224E+00   3.340738E+00   3.346142E+00   3.324819E+00   3.288116E+00   3.258533E+00   3.245176E+00   3.259921E+00   3.298110E+00   3.354477E+00   3.410151E+00   3.442349E+00   3.444271E+00   3.415188E+00   3.382236E+00   3.375031E+00   3.390191E+00   3.444828E+00   3.502720E+00   3.535507E+00   3.518999E+00   3.461849E+00   3.369446E+00   3.284234E+00   3.227635E+00   3.242687E+00   3.322115E+00   3.490547E+00   3.741140E+00   4.033739E+00   4.338107E+00   4.635738E+00   4.931031E+00   5.239117E+00   5.556288E+00   5.846035E+00   6.058929E+00   6.142612E+00   6.062403E+00   5.839685E+00   5.501412E+00   5.102301E+00   4.675168E+00   4.269481E+00   3.885887E+00   3.559993E+00   3.277971E+00   3.028323E+00   2.793720E+00   2.601033E+00   2.452552E+00   2.352276E+00   2.309299E+00   2.314301E+00   2.382740E+00   2.499940E+00   2.669235E+00   2.872174E+00   3.122938E+00   3.385259E+00   3.627490E+00   3.814871E+00   3.943779E+00   4.011597E+00   4.035285E+00   4.031340E+00   3.989677E+00   3.960287E+00   3.940464E+00   3.914370E+00   3.892750E+00   3.875221E+00   3.877888E+00   3.913484E+00   3.978493E+00   4.087977E+00   4.228864E+00   4.381439E+00   4.500608E+00   4.581248E+00   4.593895E+00   4.575603E+00   4.527374E+00   4.442597E+00   4.360672E+00   4.255010E+00   4.139199E+00
   4.118101E+00   4.210656E+00   4.262517E+00   4.249806E+00   4.208259E+00   4.124882E+00   4.064899E+00   3.997092E+00   3.908951E+00   3.779324E+00   3.618491E+00   3.458745E+00   3.315152E+00   3.196537E+00   3.115570E+00   3.068089E+00   3.036121E+00   3.024432E+00   3.037608E+00   3.091228E+00   3.170774E+00   3.276551E+00   3.403956E+00   3.532413E+00   3.672872E+00   3.817034E+00   3.980648E+00   4.160203E+00   4.384094E+00   4.597015E+00   4.814435E+00   5.006519E+00   5.182107E+00   5.289910E+00   5.336467E+00   5.285732E+00   5.156686E+00   4.925567E+00   4.612115E+00   4.239902E+00   3.878105E+00   3.554850E+00   3.295699E+00   3.101733E+00   2.960378E+00   2.877796E+00   2.847486E+00   2.877237E+00   2.958267E+00   3.078846E+00   3.238791E+00   3.414299E+00   3.596018E+00   3.736964E+00   3.843282E+00   3.910490E+00   3.973862E+00   4.058508E+00   4.187925E+00   4.376674E+00   4.612013E+00   4.859195E+00   5.051349E+00   5.164571E+00   5.161708E+00   5.043822E+00   4.842477E+00   4.609851E+00   4.365498E+00   4.127138E+00   3.916268E+00   3.719584E+00   3.534342E+00   3.381407E+00   3.237711E+00   3.137430E+00   3.067375E+00   3.019374E+00   2.985832E+00   2.954983E+00   2.920209E+00   2.866667E+00   2.804074E+00   2.741687E+00   2.668977E+00   2.616334E+00   2.575706E+00   2.565601E+00   2.601002E+00   2.681582E+00   2.828650E+00   3.010446E+00   3.222784E+00   3.449726E+00   3.653217E+00   3.812602E+00   3.942702E+00   4.020046E+00   4.008672E+00   3.951931E+00   3.841249E+00   3.726009E+00   3.609798E+00   3.506096E+00   3.425565E+00   3.373162E+00   3.342677E+00   3.343854E+00   3.354381E+00   3.380006E+00   3.413564E+00   3.449706E+00   3.492601E+00   3.513426E+00   3.511540E+00   3.486447E+00   3.433181E+00   3.358742E+00   3.270621E+00   3.190199E+00   3.132953E+00   3.100522E+00   3.091508E+00   3.086434E+00   3.077524E+00   3.064507E+00   3.046277E+00   3.046570E+00   3.069841E+00   3.129006E+00   3.219724E+00   3.329656E+00   3.413127E+00   3.460552E+00   3.453794E+00   3.415547E+00   3.354310E+00   3.319357E+00   3.333459E+00   3.424610E+00   3.582929E+00   3.817535E+00   4.090369E+00   4.375456E+00   4.641906E+00   4.914200E+00   5.188194E+00   5.480855E+00   5.738277E+00   5.935951E+00   6.020078E+00   5.968536E+00   5.782669E+00   5.506155E+00   5.157946E+00   4.773593E+00   4.398412E+00   4.036876E+00   3.707616E+00   3.425097E+00   3.169181E+00   2.936245E+00   2.729609E+00   2.576830E+00   2.472923E+00   2.423161E+00   2.430951E+00   2.485631E+00   2.602082E+00   2.752260E+00   2.949097E+00   3.173129E+00   3.409267E+00   3.626994E+00   3.804101E+00   3.901108E+00   3.955254E+00   3.968496E+00   3.953123E+00   3.917480E+00   3.892761E+00   3.872457E+00   3.861970E+00   3.835934E+00   3.817759E+00   3.802236E+00   3.815633E+00   3.857157E+00   3.933762E+00   4.037583E+00   4.145024E+00   4.243734E+00   4.295221E+00   4.320565E+00   4.320646E+00   4.298098E+00   4.258224E+00   4.217129E+00   4.165359E+00   4.084789E+00