# LPF package for  MODFLOW-2005, generated by Flopy.
         0    -1E+30         0  
         0
         0
   1.000000E+00
         0
         0
INTERNAL               1 (200E15.6) -1 #hk layer 1                    
   3.962804E+00   3.935292E+00   3.904653E+00   3.862649E+00   3.833911E+00   3.813494E+00   3.802146E+00   3.789407E+00   3.787794E+00   3.761529E+00   3.732090E+00   3.689056E+00   3.641813E+00   3.585392E+00   3.527783E+00   3.488869E+00   3.471353E+00   3.475667E+00   3.487922E+00   3.515020E+00   3.555528E+00   3.610246E+00   3.676264E+00   3.769759E+00   3.856430E+00   3.942596E+00   4.023945E+00   4.102497E+00   4.173222E+00   4.228698E+00   4.263268E+00   4.277929E+00   4.262227E+00   4.208490E+00   4.143854E+00   4.060768E+00   3.983382E+00   3.902229E+00   3.837071E+00   3.780176E+00   3.734145E+00   3.704816E+00   3.677465E+00   3.641282E+00   3.611977E+00   3.596058E+00   3.597702E+00   3.596271E+00   3.596891E+00   3.587524E+00   3.565744E+00   3.538350E+00   3.502504E+00   3.460836E+00   3.425117E+00   3.380387E+00   3.348089E+00   3.330674E+00   3.342660E+00   3.384866E+00   3.437996E+00   3.508785E+00   3.589148E+00   3.667723E+00   3.725109E+00   3.774397E+00   3.803999E+00   3.824252E+00   3.826215E+00   3.806283E+00   3.768857E+00   3.724468E+00   3.684090E+00   3.659029E+00   3.654921E+00   3.647354E+00   3.655619E+00   3.651927E+00   3.644743E+00   3.635334E+00   3.635949E+00   3.623942E+00   3.611612E+00   3.599669E+00   3.583280E+00   3.572433E+00   3.570215E+00   3.582539E+00   3.598510E+00   3.649312E+00   3.715196E+00   3.791210E+00   3.863590E+00   3.918634E+00   3.938363E+00   3.934581E+00   3.912077E+00   3.868438E+00   3.820459E+00   3.755493E+00   3.689053E+00   3.614604E+00   3.539054E+00   3.483750E+00   3.437012E+00   3.398809E+00   3.375628E+00   3.354524E+00   3.352575E+00   3.341050E+00   3.328775E+00   3.309077E+00   3.299482E+00   3.305152E+00   3.313982E+00   3.344124E+00   3.403519E+00   3.482013E+00   3.577517E+00   3.681978E+00   3.773206E+00   3.873442E+00   3.963063E+00   4.047370E+00   4.127071E+00   4.192562E+00   4.268149E+00   4.325097E+00   4.356701E+00   4.372971E+00   4.360142E+00   4.335489E+00   4.308277E+00   4.267491E+00   4.212872E+00   4.168952E+00   4.110947E+00   4.072219E+00   4.050327E+00   4.051465E+00   4.074163E+00   4.106725E+00   4.158708E+00   4.213226E+00   4.279425E+00   4.349019E+00   4.431311E+00   4.525118E+00   4.590670E+00   4.616922E+00   4.595862E+00   4.545388E+00   4.457951E+00   4.371039E+00   4.269374E+00   4.164141E+00   4.064172E+00   3.962262E+00   3.866657E+00   3.760868E+00   3.673674E+00   3.573166E+00   3.493904E+00   3.440073E+00   3.401920E+00   3.385129E+00   3.389161E+00   3.415225E+00   3.461411E+00   3.544916E+00   3.647768E+00   3.756867E+00   3.870624E+00   3.969641E+00   4.043527E+00   4.094797E+00   4.129405E+00   4.160823E+00   4.187342E+00   4.202402E+00   4.222229E+00   4.238327E+00   4.251720E+00   4.250417E+00   4.238925E+00   4.202216E+00   4.153118E+00   4.089961E+00   4.032089E+00   3.993654E+00   3.975584E+00   3.977411E+00   3.985318E+00   4.000335E+00   4.005159E+00   4.010202E+00   4.009881E+00   3.991126E+00   3.983133E+00   3.979256E+00
   3.931113E+00   3.887775E+00   3.829855E+00   3.762683E+00   3.694634E+00   3.655614E+00   3.623626E+00   3.599860E+00   3.585600E+00   3.569189E+00   3.518313E+00   3.459064E+00   3.366388E+00   3.277751E+00   3.189156E+00   3.124453E+00   3.088226E+00   3.089567E+00   3.108985E+00   3.146041E+00   3.207018E+00   3.294872E+00   3.408906E+00   3.546171E+00   3.701267E+00   3.869328E+00   4.044073E+00   4.212709E+00   4.363613E+00   4.476479E+00   4.542350E+00   4.578072E+00   4.538967E+00   4.449492E+00   4.313354E+00   4.166459E+00   4.016434E+00   3.865994E+00   3.720803E+00   3.616815E+00   3.531680E+00   3.477197E+00   3.426261E+00   3.377810E+00   3.326599E+00   3.299099E+00   3.291120E+00   3.285256E+00   3.282590E+00   3.269223E+00   3.241710E+00   3.197883E+00   3.151732E+00   3.091429E+00   3.019057E+00   2.952903E+00   2.904665E+00   2.881347E+00   2.896917E+00   2.955970E+00   3.048471E+00   3.177685E+00   3.316756E+00   3.439741E+00   3.541303E+00   3.620665E+00   3.660266E+00   3.671370E+00   3.655006E+00   3.608244E+00   3.537260E+00   3.463478E+00   3.395236E+00   3.346977E+00   3.318592E+00   3.306062E+00   3.307086E+00   3.317586E+00   3.331080E+00   3.345005E+00   3.346539E+00   3.340052E+00   3.320689E+00   3.291969E+00   3.255973E+00   3.224551E+00   3.214727E+00   3.223716E+00   3.257419E+00   3.327246E+00   3.450102E+00   3.572168E+00   3.708662E+00   3.808765E+00   3.861489E+00   3.866508E+00   3.818081E+00   3.748745E+00   3.659466E+00   3.553684E+00   3.436649E+00   3.309792E+00   3.183246E+00   3.082468E+00   3.003145E+00   2.939933E+00   2.899386E+00   2.875939E+00   2.858207E+00   2.842975E+00   2.823464E+00   2.810843E+00   2.814828E+00   2.824312E+00   2.856042E+00   2.913513E+00   2.997213E+00   3.108609E+00   3.251943E+00   3.408401E+00   3.571142E+00   3.748683E+00   3.920097E+00   4.087038E+00   4.236390E+00   4.381832E+00   4.511686E+00   4.608090E+00   4.648654E+00   4.659096E+00   4.639109E+00   4.593587E+00   4.519035E+00   4.415547E+00   4.309428E+00   4.212359E+00   4.139941E+00   4.086536E+00   4.073605E+00   4.088449E+00   4.138811E+00   4.222646E+00   4.297305E+00   4.406909E+00   4.525891E+00   4.681062E+00   4.854754E+00   5.038087E+00   5.182830E+00   5.230628E+00   5.195652E+00   5.072875E+00   4.905428E+00   4.710661E+00   4.497630E+00   4.284896E+00   4.077453E+00   3.883771E+00   3.689683E+00   3.513320E+00   3.339271E+00   3.195071E+00   3.067176E+00   2.986268E+00   2.935802E+00   2.910944E+00   2.919168E+00   2.971703E+00   3.068368E+00   3.208039E+00   3.374036E+00   3.558263E+00   3.746590E+00   3.909738E+00   4.045694E+00   4.142329E+00   4.213329E+00   4.270732E+00   4.313106E+00   4.347975E+00   4.379256E+00   4.414630E+00   4.424956E+00   4.420169E+00   4.382028E+00   4.328710E+00   4.247800E+00   4.153080E+00   4.068465E+00   4.004993E+00   4.004076E+00   4.018941E+00   4.044926E+00   4.059620E+00   4.058002E+00   4.054758E+00   4.036802E+00   4.011679E+00   3.986636E+00   3.982273E+00
   3.911466E+00   3.831552E+00   3.749180E+00   3.665406E+00   3.598500E+00   3.527590E+00   3.482152E+00   3.448261E+00   3.426453E+00   3.389929E+00   3.342376E+00   3.261658E+00   3.174694E+00   3.070630E+00   2.974691E+00   2.897355E+00   2.853361E+00   2.846046E+00   2.866277E+00   2.912546E+00   2.976516E+00   3.079183E+00   3.215741E+00   3.387485E+00   3.576876E+00   3.793150E+00   4.037683E+00   4.276209E+00   4.494958E+00   4.656898E+00   4.767659E+00   4.800718E+00   4.762056E+00   4.651898E+00   4.499789E+00   4.292209E+00   4.081612E+00   3.862508E+00   3.679363E+00   3.528012E+00   3.415405E+00   3.324712E+00   3.258543E+00   3.193941E+00   3.126387E+00   3.063169E+00   3.038567E+00   3.013540E+00   3.011598E+00   3.010572E+00   3.004036E+00   2.978869E+00   2.952792E+00   2.897512E+00   2.834467E+00   2.772450E+00   2.717710E+00   2.691811E+00   2.709738E+00   2.779215E+00   2.893790E+00   3.038739E+00   3.197143E+00   3.348062E+00   3.465578E+00   3.537083E+00   3.566051E+00   3.555389E+00   3.506003E+00   3.430273E+00   3.324312E+00   3.223178E+00   3.130248E+00   3.063478E+00   3.021506E+00   3.001218E+00   3.009118E+00   3.033916E+00   3.075058E+00   3.111590E+00   3.131573E+00   3.131997E+00   3.117201E+00   3.074747E+00   3.034930E+00   2.993932E+00   2.965609E+00   2.958405E+00   2.985233E+00   3.067488E+00   3.197110E+00   3.362969E+00   3.524693E+00   3.668732E+00   3.739665E+00   3.749310E+00   3.708588E+00   3.630536E+00   3.534518E+00   3.404148E+00   3.256513E+00   3.102506E+00   2.953706E+00   2.817868E+00   2.714972E+00   2.634354E+00   2.577217E+00   2.544157E+00   2.526367E+00   2.512753E+00   2.502822E+00   2.501599E+00   2.520911E+00   2.552813E+00   2.595663E+00   2.672246E+00   2.769387E+00   2.892725E+00   3.056231E+00   3.237128E+00   3.429978E+00   3.652961E+00   3.878125E+00   4.097891E+00   4.299479E+00   4.472323E+00   4.633185E+00   4.738549E+00   4.800471E+00   4.799444E+00   4.754776E+00   4.666552E+00   4.541407E+00   4.402901E+00   4.262246E+00   4.144772E+00   4.046815E+00   4.001895E+00   3.997517E+00   4.042696E+00   4.127872E+00   4.226789E+00   4.359261E+00   4.514898E+00   4.710742E+00   4.934564E+00   5.204831E+00   5.455221E+00   5.643302E+00   5.717328E+00   5.675328E+00   5.512823E+00   5.265901E+00   4.981554E+00   4.677694E+00   4.377975E+00   4.084813E+00   3.801190E+00   3.529157E+00   3.281379E+00   3.065640E+00   2.875456E+00   2.743182E+00   2.652087E+00   2.600260E+00   2.586704E+00   2.616753E+00   2.692719E+00   2.816017E+00   2.983768E+00   3.191521E+00   3.408148E+00   3.631723E+00   3.835840E+00   4.016039E+00   4.145838E+00   4.243463E+00   4.309271E+00   4.361321E+00   4.399909E+00   4.422921E+00   4.430427E+00   4.437355E+00   4.415601E+00   4.374137E+00   4.306479E+00   4.231757E+00   4.167450E+00   4.107692E+00   4.083315E+00   4.095649E+00   4.140579E+00   4.191340E+00   4.206291E+00   4.196231E+00   4.158035E+00   4.116468E+00   4.075932E+00   4.039180E+00   4.009577E+00
   3.896403E+00   3.808096E+00   3.706700E+00   3.617174E+00   3.544118E+00   3.483406E+00   3.426422E+00   3.386323E+00   3.348552E+00   3.304991E+00   3.237707E+00   3.162130E+00   3.060489E+00   2.958715E+00   2.861141E+00   2.788270E+00   2.738123E+00   2.722210E+00   2.738975E+00   2.785649E+00   2.847067E+00   2.944252E+00   3.081216E+00   3.263762E+00   3.476229E+00   3.717978E+00   3.983287E+00   4.264470E+00   4.516171E+00   4.715882E+00   4.849810E+00   4.915067E+00   4.877012E+00   4.796055E+00   4.626374E+00   4.406828E+00   4.158622E+00   3.903552E+00   3.670430E+00   3.491374E+00   3.346885E+00   3.228162E+00   3.123841E+00   3.027587E+00   2.943040E+00   2.872376E+00   2.826495E+00   2.790804E+00   2.786009E+00   2.799536E+00   2.824402E+00   2.847414E+00   2.863720E+00   2.862998E+00   2.829791E+00   2.784501E+00   2.741360E+00   2.725916E+00   2.748754E+00   2.821512E+00   2.941219E+00   3.095654E+00   3.256348E+00   3.401661E+00   3.504823E+00   3.551512E+00   3.541408E+00   3.483582E+00   3.397398E+00   3.284144E+00   3.158414E+00   3.025369E+00   2.914964E+00   2.825438E+00   2.781776E+00   2.772591E+00   2.795794E+00   2.836291E+00   2.896107E+00   2.947993E+00   2.992725E+00   3.008775E+00   2.996550E+00   2.955855E+00   2.894910E+00   2.837713E+00   2.787483E+00   2.765090E+00   2.784707E+00   2.852684E+00   2.985685E+00   3.146346E+00   3.332482E+00   3.492975E+00   3.601863E+00   3.641447E+00   3.617467E+00   3.549567E+00   3.454577E+00   3.324467E+00   3.169887E+00   2.996496E+00   2.833505E+00   2.695465E+00   2.574651E+00   2.488547E+00   2.434643E+00   2.394211E+00   2.381599E+00   2.367562E+00   2.371156E+00   2.385702E+00   2.416409E+00   2.466642E+00   2.530431E+00   2.616686E+00   2.714828E+00   2.835930E+00   2.982239E+00   3.155266E+00   3.350448E+00   3.571507E+00   3.813524E+00   4.059254E+00   4.280757E+00   4.464226E+00   4.608814E+00   4.703990E+00   4.741467E+00   4.728827E+00   4.662043E+00   4.551439E+00   4.399893E+00   4.235951E+00   4.082210E+00   3.944488E+00   3.856310E+00   3.807151E+00   3.816118E+00   3.887433E+00   4.004898E+00   4.149689E+00   4.328835E+00   4.553198E+00   4.810989E+00   5.114120E+00   5.421908E+00   5.737032E+00   5.978626E+00   6.084742E+00   6.043936E+00   5.855935E+00   5.551362E+00   5.188779E+00   4.810575E+00   4.452250E+00   4.092953E+00   3.748873E+00   3.425314E+00   3.138716E+00   2.889529E+00   2.700770E+00   2.550868E+00   2.445292E+00   2.391663E+00   2.380395E+00   2.412881E+00   2.497641E+00   2.634109E+00   2.831228E+00   3.049960E+00   3.291902E+00   3.531868E+00   3.766439E+00   3.957992E+00   4.113048E+00   4.209277E+00   4.281531E+00   4.319140E+00   4.339323E+00   4.337327E+00   4.334855E+00   4.302951E+00   4.280838E+00   4.231398E+00   4.189392E+00   4.155160E+00   4.129643E+00   4.138677E+00   4.185135E+00   4.258756E+00   4.340836E+00   4.393919E+00   4.415522E+00   4.385974E+00   4.323229E+00   4.236947E+00   4.155981E+00   4.091936E+00   4.036517E+00
   3.901776E+00   3.809865E+00   3.713109E+00   3.630306E+00   3.558635E+00   3.493111E+00   3.438230E+00   3.386787E+00   3.350259E+00   3.288952E+00   3.216600E+00   3.121800E+00   3.023678E+00   2.922896E+00   2.831538E+00   2.753375E+00   2.701957E+00   2.678984E+00   2.700026E+00   2.742775E+00   2.817824E+00   2.926656E+00   3.056306E+00   3.230238E+00   3.438237E+00   3.675235E+00   3.932251E+00   4.187183E+00   4.434722E+00   4.641139E+00   4.791389E+00   4.871387E+00   4.907647E+00   4.863445E+00   4.745478E+00   4.552861E+00   4.322740E+00   4.029127E+00   3.758055E+00   3.507749E+00   3.313175E+00   3.155803E+00   3.021922E+00   2.903053E+00   2.799061E+00   2.720834E+00   2.670679E+00   2.638600E+00   2.636243E+00   2.669906E+00   2.738305E+00   2.822542E+00   2.909669E+00   2.960208E+00   2.975822E+00   2.960021E+00   2.945265E+00   2.944691E+00   2.982818E+00   3.057527E+00   3.184402E+00   3.341422E+00   3.498806E+00   3.627275E+00   3.703210E+00   3.705502E+00   3.643591E+00   3.535218E+00   3.394415E+00   3.238006E+00   3.074403E+00   2.924389E+00   2.788635E+00   2.691507E+00   2.641961E+00   2.636492E+00   2.665557E+00   2.729666E+00   2.800406E+00   2.866657E+00   2.918674E+00   2.931899E+00   2.906785E+00   2.852366E+00   2.782487E+00   2.705742E+00   2.637470E+00   2.600070E+00   2.600026E+00   2.654694E+00   2.770660E+00   2.936703E+00   3.120246E+00   3.299763E+00   3.443273E+00   3.519334E+00   3.535268E+00   3.509618E+00   3.445662E+00   3.341637E+00   3.193536E+00   3.013801E+00   2.850146E+00   2.707375E+00   2.596881E+00   2.519475E+00   2.465009E+00   2.429010E+00   2.405322E+00   2.407530E+00   2.422871E+00   2.449208E+00   2.487319E+00   2.553893E+00   2.622406E+00   2.698751E+00   2.790285E+00   2.883674E+00   3.000973E+00   3.141527E+00   3.320302E+00   3.524446E+00   3.753953E+00   3.992012E+00   4.188211E+00   4.355811E+00   4.461517E+00   4.499781E+00   4.505601E+00   4.484931E+00   4.418893E+00   4.309592E+00   4.154467E+00   4.001520E+00   3.840284E+00   3.701661E+00   3.600881E+00   3.565565E+00   3.584690E+00   3.674303E+00   3.811235E+00   4.003776E+00   4.232580E+00   4.505201E+00   4.816543E+00   5.151462E+00   5.489244E+00   5.836834E+00   6.113008E+00   6.268558E+00   6.251103E+00   6.081820E+00   5.759134E+00   5.355484E+00   4.928044E+00   4.504893E+00   4.099242E+00   3.720591E+00   3.368844E+00   3.066560E+00   2.811310E+00   2.601254E+00   2.445656E+00   2.332487E+00   2.270792E+00   2.254997E+00   2.288342E+00   2.376295E+00   2.523392E+00   2.715406E+00   2.944832E+00   3.190776E+00   3.443146E+00   3.688815E+00   3.913145E+00   4.079693E+00   4.192496E+00   4.246367E+00   4.279150E+00   4.268143E+00   4.247646E+00   4.206439E+00   4.172467E+00   4.135053E+00   4.107901E+00   4.081185E+00   4.088444E+00   4.122704E+00   4.193549E+00   4.300996E+00   4.423689E+00   4.541176E+00   4.622995E+00   4.633831E+00   4.597849E+00   4.522482E+00   4.414453E+00   4.300111E+00   4.189070E+00   4.089287E+00
   3.927712E+00   3.860503E+00   3.788467E+00   3.723013E+00   3.643513E+00   3.574858E+00   3.506963E+00   3.459945E+00   3.412414E+00   3.347524E+00   3.262858E+00   3.164159E+00   3.052941E+00   2.956287E+00   2.864973E+00   2.791510E+00   2.733464E+00   2.716383E+00   2.734848E+00   2.798080E+00   2.881772E+00   2.997731E+00   3.127913E+00   3.292905E+00   3.480185E+00   3.680902E+00   3.901034E+00   4.137539E+00   4.357723E+00   4.558395E+00   4.715180E+00   4.836060E+00   4.927679E+00   4.953240E+00   4.885250E+00   4.747849E+00   4.527737E+00   4.225756E+00   3.907118E+00   3.603183E+00   3.350071E+00   3.143745E+00   2.970029E+00   2.836333E+00   2.727612E+00   2.642153E+00   2.593225E+00   2.572035E+00   2.599264E+00   2.666531E+00   2.775672E+00   2.912945E+00   3.051117E+00   3.165579E+00   3.227654E+00   3.263549E+00   3.280962E+00   3.300977E+00   3.350873E+00   3.445634E+00   3.576607E+00   3.732438E+00   3.894558E+00   4.002916E+00   4.042966E+00   3.995823E+00   3.873195E+00   3.711470E+00   3.518352E+00   3.313754E+00   3.125749E+00   2.946773E+00   2.803674E+00   2.694796E+00   2.639254E+00   2.634506E+00   2.659889E+00   2.717114E+00   2.790320E+00   2.848003E+00   2.890227E+00   2.891001E+00   2.853477E+00   2.790617E+00   2.707422E+00   2.614569E+00   2.527450E+00   2.466224E+00   2.453223E+00   2.498801E+00   2.602723E+00   2.761881E+00   2.956976E+00   3.157461E+00   3.336376E+00   3.461981E+00   3.531807E+00   3.551739E+00   3.523447E+00   3.437855E+00   3.300569E+00   3.144856E+00   2.985326E+00   2.848525E+00   2.744522E+00   2.676146E+00   2.636817E+00   2.606847E+00   2.595506E+00   2.592977E+00   2.610083E+00   2.640136E+00   2.692074E+00   2.751505E+00   2.813695E+00   2.871333E+00   2.921966E+00   2.981563E+00   3.061108E+00   3.169910E+00   3.313929E+00   3.483423E+00   3.679840E+00   3.872317E+00   4.036772E+00   4.143307E+00   4.185614E+00   4.176365E+00   4.163451E+00   4.129843E+00   4.091892E+00   4.017624E+00   3.917181E+00   3.791038E+00   3.647850E+00   3.508822E+00   3.404515E+00   3.357831E+00   3.388477E+00   3.479380E+00   3.631864E+00   3.853671E+00   4.107377E+00   4.400389E+00   4.726617E+00   5.081115E+00   5.439712E+00   5.796309E+00   6.091761E+00   6.274471E+00   6.310109E+00   6.157958E+00   5.832228E+00   5.429883E+00   4.998693E+00   4.558940E+00   4.133457E+00   3.732145E+00   3.385645E+00   3.080995E+00   2.821492E+00   2.606656E+00   2.437341E+00   2.311440E+00   2.234340E+00   2.206486E+00   2.235739E+00   2.315051E+00   2.455958E+00   2.644060E+00   2.873348E+00   3.127860E+00   3.388971E+00   3.644140E+00   3.860817E+00   4.029579E+00   4.142324E+00   4.208745E+00   4.219808E+00   4.215633E+00   4.167629E+00   4.130911E+00   4.083598E+00   4.053233E+00   4.027207E+00   4.034132E+00   4.065584E+00   4.130248E+00   4.237577E+00   4.388416E+00   4.552946E+00   4.687622E+00   4.764282E+00   4.776247E+00   4.729227E+00   4.654558E+00   4.558988E+00   4.432420E+00   4.291427E+00   4.145039E+00
   3.979160E+00   3.955945E+00   3.915904E+00   3.845933E+00   3.787018E+00   3.702044E+00   3.640174E+00   3.585023E+00   3.538352E+00   3.469640E+00   3.374431E+00   3.260545E+00   3.136890E+00   3.032462E+00   2.942875E+00   2.871530E+00   2.819551E+00   2.790791E+00   2.820070E+00   2.883535E+00   2.984464E+00   3.110439E+00   3.237029E+00   3.391466E+00   3.556715E+00   3.739845E+00   3.941026E+00   4.130164E+00   4.330285E+00   4.528015E+00   4.721053E+00   4.874924E+00   4.992485E+00   5.066534E+00   5.072985E+00   4.978726E+00   4.777458E+00   4.474130E+00   4.122599E+00   3.772439E+00   3.475165E+00   3.218343E+00   3.015367E+00   2.854321E+00   2.730822E+00   2.649994E+00   2.601546E+00   2.605768E+00   2.658276E+00   2.753074E+00   2.900929E+00   3.082650E+00   3.263763E+00   3.424470E+00   3.534841E+00   3.599967E+00   3.640144E+00   3.670239E+00   3.741644E+00   3.854884E+00   4.003190E+00   4.173823E+00   4.336110E+00   4.434881E+00   4.438060E+00   4.351747E+00   4.189219E+00   3.980383E+00   3.750068E+00   3.520877E+00   3.296209E+00   3.105066E+00   2.944387E+00   2.833276E+00   2.760487E+00   2.730941E+00   2.735947E+00   2.772487E+00   2.824515E+00   2.867413E+00   2.880967E+00   2.863315E+00   2.809033E+00   2.742367E+00   2.651791E+00   2.551325E+00   2.460600E+00   2.394537E+00   2.382821E+00   2.433094E+00   2.543486E+00   2.699931E+00   2.901528E+00   3.111411E+00   3.317364E+00   3.495340E+00   3.621943E+00   3.675240E+00   3.671708E+00   3.600618E+00   3.484904E+00   3.344897E+00   3.201145E+00   3.072822E+00   2.982806E+00   2.926836E+00   2.896584E+00   2.880220E+00   2.874748E+00   2.873998E+00   2.886208E+00   2.915197E+00   2.966156E+00   3.023330E+00   3.067111E+00   3.109171E+00   3.122864E+00   3.139644E+00   3.171120E+00   3.221581E+00   3.308939E+00   3.421324E+00   3.553693E+00   3.683377E+00   3.774721E+00   3.814402E+00   3.802675E+00   3.771488E+00   3.744057E+00   3.736691E+00   3.735404E+00   3.735899E+00   3.698911E+00   3.619846E+00   3.520835E+00   3.397774E+00   3.291302E+00   3.229131E+00   3.249161E+00   3.342956E+00   3.512176E+00   3.753075E+00   4.029764E+00   4.332030E+00   4.644961E+00   4.977773E+00   5.324890E+00   5.669523E+00   5.977490E+00   6.189451E+00   6.239283E+00   6.109988E+00   5.834457E+00   5.472529E+00   5.047271E+00   4.617423E+00   4.185378E+00   3.798203E+00   3.451444E+00   3.153410E+00   2.899643E+00   2.673206E+00   2.492422E+00   2.357255E+00   2.272674E+00   2.236491E+00   2.258106E+00   2.327225E+00   2.455515E+00   2.632010E+00   2.853961E+00   3.110958E+00   3.385733E+00   3.642768E+00   3.848341E+00   3.999428E+00   4.091668E+00   4.131108E+00   4.142108E+00   4.115718E+00   4.074150E+00   4.032105E+00   3.995049E+00   3.959982E+00   3.949605E+00   3.955128E+00   4.000637E+00   4.076090E+00   4.203015E+00   4.372291E+00   4.537201E+00   4.675666E+00   4.759171E+00   4.768236E+00   4.728058E+00   4.655854E+00   4.566783E+00   4.446471E+00   4.311232E+00   4.158984E+00
   4.043829E+00   4.084026E+00   4.071241E+00   4.037060E+00   3.960669E+00   3.884840E+00   3.813368E+00   3.759234E+00   3.692765E+00   3.603857E+00   3.479833E+00   3.349954E+00   3.221147E+00   3.113936E+00   3.027498E+00   2.968338E+00   2.913487E+00   2.900806E+00   2.924238E+00   2.988972E+00   3.088089E+00   3.214346E+00   3.341974E+00   3.478555E+00   3.627119E+00   3.797218E+00   3.965476E+00   4.147346E+00   4.341320E+00   4.551119E+00   4.755470E+00   4.953634E+00   5.103940E+00   5.216174E+00   5.242344E+00   5.178593E+00   5.007592E+00   4.734904E+00   4.379286E+00   4.002651E+00   3.650706E+00   3.362803E+00   3.125854E+00   2.944301E+00   2.818903E+00   2.735163E+00   2.706421E+00   2.716196E+00   2.786669E+00   2.908397E+00   3.079798E+00   3.271698E+00   3.457513E+00   3.627794E+00   3.747480E+00   3.825792E+00   3.874116E+00   3.940867E+00   4.036033E+00   4.175663E+00   4.366796E+00   4.566249E+00   4.749356E+00   4.856465E+00   4.848088E+00   4.724591E+00   4.530879E+00   4.302047E+00   4.057645E+00   3.806337E+00   3.578551E+00   3.379291E+00   3.202373E+00   3.066201E+00   2.968535E+00   2.906244E+00   2.886553E+00   2.881096E+00   2.896704E+00   2.905360E+00   2.900461E+00   2.859630E+00   2.799102E+00   2.724679E+00   2.643490E+00   2.555729E+00   2.476348E+00   2.431284E+00   2.432072E+00   2.497691E+00   2.614396E+00   2.782887E+00   2.976869E+00   3.194412E+00   3.413328E+00   3.609254E+00   3.764617E+00   3.839218E+00   3.844111E+00   3.785884E+00   3.673796E+00   3.547914E+00   3.416938E+00   3.299676E+00   3.213379E+00   3.165504E+00   3.149734E+00   3.144530E+00   3.148816E+00   3.160734E+00   3.179727E+00   3.208388E+00   3.261047E+00   3.311791E+00   3.341255E+00   3.346606E+00   3.325231E+00   3.288474E+00   3.258845E+00   3.245445E+00   3.260151E+00   3.298296E+00   3.354621E+00   3.410249E+00   3.442397E+00   3.444265E+00   3.415132E+00   3.382130E+00   3.374883E+00   3.389999E+00   3.444591E+00   3.502438E+00   3.535187E+00   3.518653E+00   3.461487E+00   3.369087E+00   3.283888E+00   3.227316E+00   3.242399E+00   3.321860E+00   3.490323E+00   3.740947E+00   4.033576E+00   4.337980E+00   4.635661E+00   4.931006E+00   5.239152E+00   5.556402E+00   5.846229E+00   6.059195E+00   6.142935E+00   6.062759E+00   5.840044E+00   5.501756E+00   5.102614E+00   4.675446E+00   4.269732E+00   3.886106E+00   3.560181E+00   3.278121E+00   3.028427E+00   2.793775E+00   2.601044E+00   2.452518E+00   2.352203E+00   2.309189E+00   2.314159E+00   2.382565E+00   2.499724E+00   2.668976E+00   2.871876E+00   3.122606E+00   3.384904E+00   3.627134E+00   3.814536E+00   3.943485E+00   4.011368E+00   4.035143E+00   4.031292E+00   3.989722E+00   3.960413E+00   3.940664E+00   3.914627E+00   3.893050E+00   3.875552E+00   3.878245E+00   3.913867E+00   3.978892E+00   4.088391E+00   4.229273E+00   4.381834E+00   4.500975E+00   4.581570E+00   4.594157E+00   4.575800E+00   4.527513E+00   4.442682E+00   4.360718E+00   4.255032E+00   4.139206E+00
   4.118063E+00   4.210583E+00   4.262417E+00   4.249692E+00   4.208140E+00   4.124767E+00   4.064790E+00   3.996986E+00   3.908843E+00   3.779211E+00   3.618371E+00   3.458618E+00   3.315021E+00   3.196398E+00   3.115423E+00   3.067926E+00   3.035936E+00   3.024218E+00   3.037359E+00   3.090935E+00   3.170428E+00   3.276143E+00   3.403475E+00   3.531853E+00   3.672227E+00   3.816298E+00   3.979812E+00   4.159252E+00   4.382997E+00   4.595760E+00   4.813005E+00   5.004911E+00   5.180317E+00   5.287966E+00   5.334407E+00   5.283609E+00   5.154552E+00   4.923481E+00   4.610132E+00   4.238057E+00   3.876401E+00   3.553284E+00   3.294245E+00   3.100370E+00   2.959088E+00   2.876560E+00   2.846286E+00   2.876056E+00   2.957093E+00   3.077671E+00   3.237605E+00   3.413105E+00   3.594831E+00   3.735821E+00   3.842215E+00   3.909527E+00   3.973030E+00   4.057824E+00   4.187398E+00   4.376318E+00   4.611852E+00   4.859256E+00   5.051649E+00   5.165111E+00   5.162462E+00   5.044749E+00   4.843536E+00   4.611009E+00   4.366715E+00   4.128385E+00   3.917522E+00   3.720830E+00   3.535564E+00   3.382611E+00   3.238893E+00   3.138604E+00   3.068544E+00   3.020542E+00   2.986998E+00   2.956145E+00   2.921365E+00   2.867811E+00   2.805208E+00   2.742811E+00   2.670083E+00   2.617425E+00   2.576783E+00   2.566675E+00   2.602093E+00   2.682712E+00   2.829851E+00   3.011741E+00   3.224188E+00   3.451247E+00   3.654838E+00   3.814297E+00   3.944449E+00   4.021811E+00   4.010401E+00   3.953598E+00   3.842827E+00   3.727485E+00   3.611165E+00   3.507355E+00   3.426721E+00   3.374223E+00   3.343649E+00   3.344748E+00   3.355204E+00   3.380765E+00   3.414268E+00   3.450357E+00   3.493198E+00   3.513966E+00   3.512023E+00   3.486878E+00   3.433562E+00   3.359076E+00   3.270910E+00   3.190446E+00   3.133161E+00   3.100688E+00   3.091634E+00   3.086519E+00   3.077563E+00   3.064500E+00   3.046224E+00   3.046468E+00   3.069690E+00   3.128804E+00   3.219469E+00   3.329345E+00   3.412766E+00   3.460153E+00   3.453374E+00   3.415120E+00   3.353893E+00   3.318963E+00   3.333095E+00   3.424278E+00   3.582633E+00   3.817278E+00   4.090153E+00   4.375290E+00   4.641796E+00   4.914152E+00   5.188214E+00   5.480957E+00   5.738468E+00   5.936220E+00   6.020412E+00   5.968914E+00   5.783066E+00   5.506552E+00   5.158325E+00   4.773944E+00   4.398734E+00   4.037166E+00   3.707868E+00   3.425306E+00   3.169341E+00   2.936352E+00   2.729666E+00   2.576838E+00   2.472886E+00   2.423084E+00   2.430837E+00   2.485480E+00   2.601891E+00   2.752029E+00   2.948826E+00   3.172827E+00   3.408947E+00   3.626677E+00   3.803805E+00   3.900851E+00   3.955061E+00   3.968384E+00   3.953102E+00   3.917544E+00   3.892900E+00   3.872660E+00   3.862222E+00   3.836219E+00   3.818063E+00   3.802555E+00   3.815967E+00   3.857502E+00   3.934114E+00   4.037935E+00   4.145365E+00   4.244053E+00   4.295503E+00   4.320800E+00   4.320831E+00   4.298234E+00   4.258315E+00   4.217184E+00   4.165388E+00   4.084801E+00