# LPF package for  MODFLOW-2005, generated by Flopy.
         0    -1E+30         0  
         0
         0
   1.000000E+00
         0
         0
INTERNAL               1 (200E15.6) -1 #hk layer 1                    
   3.962810E+00   3.935298E+00   3.904661E+00   3.862654E+00   3.833914E+00   3.813493E+00   3.802138E+00   3.789399E+00   3.787782E+00   3.761519E+00   3.732075E+00   3.689032E+00   3.641780E+00   3.585352E+00   3.527735E+00   3.488814E+00   3.471289E+00   3.475593E+00   3.487844E+00   3.514945E+00   3.555457E+00   3.610186E+00   3.676219E+00   3.769736E+00   3.856430E+00   3.942623E+00   4.024001E+00   4.102582E+00   4.173337E+00   4.228839E+00   4.263436E+00   4.278126E+00   4.262451E+00   4.208737E+00   4.144119E+00   4.061047E+00   3.983670E+00   3.902516E+00   3.837355E+00   3.780458E+00   3.734424E+00   3.705093E+00   3.677741E+00   3.641560E+00   3.612260E+00   3.596345E+00   3.597998E+00   3.596575E+00   3.597201E+00   3.587835E+00   3.566050E+00   3.538646E+00   3.502782E+00   3.461094E+00   3.425350E+00   3.380590E+00   3.348266E+00   3.330823E+00   3.342782E+00   3.384960E+00   3.438063E+00   3.508824E+00   3.589160E+00   3.667714E+00   3.725078E+00   3.774348E+00   3.803935E+00   3.824174E+00   3.826126E+00   3.806183E+00   3.768753E+00   3.724365E+00   3.683992E+00   3.658940E+00   3.654847E+00   3.647293E+00   3.655575E+00   3.651896E+00   3.644724E+00   3.635321E+00   3.635936E+00   3.623921E+00   3.611579E+00   3.599618E+00   3.583205E+00   3.572335E+00   3.570094E+00   3.582393E+00   3.598344E+00   3.649132E+00   3.715002E+00   3.791010E+00   3.863389E+00   3.918434E+00   3.938169E+00   3.934394E+00   3.911901E+00   3.868269E+00   3.820293E+00   3.755328E+00   3.688885E+00   3.614433E+00   3.538877E+00   3.483563E+00   3.436812E+00   3.398599E+00   3.375404E+00   3.354288E+00   3.352325E+00   3.340790E+00   3.328507E+00   3.308802E+00   3.299204E+00   3.304871E+00   3.313704E+00   3.343850E+00   3.403253E+00   3.481755E+00   3.577267E+00   3.681741E+00   3.772982E+00   3.873237E+00   3.962880E+00   4.047213E+00   4.126942E+00   4.192455E+00   4.268062E+00   4.325021E+00   4.356635E+00   4.372906E+00   4.360076E+00   4.335424E+00   4.308215E+00   4.267432E+00   4.212813E+00   4.168895E+00   4.110889E+00   4.072162E+00   4.050271E+00   4.051408E+00   4.074111E+00   4.106684E+00   4.158681E+00   4.213213E+00   4.279429E+00   4.349035E+00   4.431342E+00   4.525157E+00   4.590714E+00   4.616971E+00   4.595910E+00   4.545436E+00   4.457994E+00   4.371076E+00   4.269401E+00   4.164152E+00   4.064165E+00   3.962240E+00   3.866626E+00   3.760832E+00   3.673640E+00   3.573138E+00   3.493886E+00   3.440069E+00   3.401934E+00   3.385165E+00   3.389221E+00   3.415311E+00   3.461530E+00   3.545070E+00   3.647963E+00   3.757096E+00   3.870888E+00   3.969929E+00   4.043828E+00   4.095102E+00   4.129704E+00   4.161116E+00   4.187610E+00   4.202641E+00   4.222433E+00   4.238492E+00   4.251851E+00   4.250511E+00   4.238990E+00   4.202254E+00   4.153140E+00   4.089970E+00   4.032090E+00   3.993652E+00   3.975585E+00   3.977420E+00   3.985339E+00   4.000370E+00   4.005208E+00   4.010259E+00   4.009942E+00   3.991181E+00   3.983175E+00   3.979279E+00
   3.931116E+00   3.887781E+00   3.829858E+00   3.762679E+00   3.694623E+00   3.655596E+00   3.623602E+00   3.599832E+00   3.585575E+00   3.569163E+00   3.518283E+00   3.459025E+00   3.366337E+00   3.277689E+00   3.189081E+00   3.124367E+00   3.088127E+00   3.089457E+00   3.108868E+00   3.145923E+00   3.206906E+00   3.294775E+00   3.408831E+00   3.546129E+00   3.701268E+00   3.869377E+00   4.044177E+00   4.212872E+00   4.363832E+00   4.476755E+00   4.542687E+00   4.578466E+00   4.539418E+00   4.449990E+00   4.313885E+00   4.167007E+00   4.016985E+00   3.866541E+00   3.721338E+00   3.617338E+00   3.532192E+00   3.477700E+00   3.426760E+00   3.378305E+00   3.327095E+00   3.299601E+00   3.291632E+00   3.285778E+00   3.283120E+00   3.269754E+00   3.242234E+00   3.198389E+00   3.152210E+00   3.091870E+00   3.019451E+00   2.953247E+00   2.904958E+00   2.881588E+00   2.897107E+00   2.956114E+00   3.048569E+00   3.177741E+00   3.316768E+00   3.439711E+00   3.541235E+00   3.620566E+00   3.660139E+00   3.671219E+00   3.654834E+00   3.608057E+00   3.537066E+00   3.463287E+00   3.395055E+00   3.346813E+00   3.318453E+00   3.305947E+00   3.306997E+00   3.317521E+00   3.331035E+00   3.344971E+00   3.346506E+00   3.340007E+00   3.320621E+00   3.291871E+00   3.255837E+00   3.224372E+00   3.214507E+00   3.223456E+00   3.257125E+00   3.326922E+00   3.449752E+00   3.571800E+00   3.708282E+00   3.808379E+00   3.861107E+00   3.866137E+00   3.817726E+00   3.748402E+00   3.659132E+00   3.553354E+00   3.436321E+00   3.309464E+00   3.182918E+00   3.082132E+00   3.002796E+00   2.939572E+00   2.899010E+00   2.875546E+00   2.857799E+00   2.842551E+00   2.823029E+00   2.810398E+00   2.814375E+00   2.823854E+00   2.855583E+00   2.913059E+00   2.996761E+00   3.108164E+00   3.251504E+00   3.407977E+00   3.570734E+00   3.748299E+00   3.919744E+00   4.086727E+00   4.236124E+00   4.381613E+00   4.511506E+00   4.607938E+00   4.648521E+00   4.658969E+00   4.638983E+00   4.593466E+00   4.518919E+00   4.415437E+00   4.309325E+00   4.212257E+00   4.139838E+00   4.086432E+00   4.073501E+00   4.088347E+00   4.138720E+00   4.222575E+00   4.297260E+00   4.406897E+00   4.525917E+00   4.681123E+00   4.854848E+00   5.038206E+00   5.182961E+00   5.230769E+00   5.195788E+00   5.073005E+00   4.905543E+00   4.710755E+00   4.497692E+00   4.284929E+00   4.077456E+00   3.883748E+00   3.689642E+00   3.513272E+00   3.339226E+00   3.195036E+00   3.067160E+00   2.986272E+00   2.935837E+00   2.911011E+00   2.919275E+00   2.971855E+00   3.068579E+00   3.208316E+00   3.374385E+00   3.558688E+00   3.747082E+00   3.910281E+00   4.046274E+00   4.142922E+00   4.213916E+00   4.271301E+00   4.313635E+00   4.348447E+00   4.379663E+00   4.414971E+00   4.425228E+00   4.420378E+00   4.382176E+00   4.328811E+00   4.247871E+00   4.153132E+00   4.068510E+00   4.005036E+00   4.004130E+00   4.019010E+00   4.045016E+00   4.059734E+00   4.058132E+00   4.054895E+00   4.036935E+00   4.011793E+00   3.986721E+00   3.982319E+00
   3.911466E+00   3.831548E+00   3.749167E+00   3.665385E+00   3.598468E+00   3.527548E+00   3.482106E+00   3.448216E+00   3.426412E+00   3.389893E+00   3.342341E+00   3.261622E+00   3.174648E+00   3.070569E+00   2.974613E+00   2.897261E+00   2.853254E+00   2.845925E+00   2.866148E+00   2.912414E+00   2.976391E+00   3.079070E+00   3.215651E+00   3.387427E+00   3.576864E+00   3.793200E+00   4.037805E+00   4.276416E+00   4.495255E+00   4.657290E+00   4.768144E+00   4.801294E+00   4.762716E+00   4.652628E+00   4.500563E+00   4.292999E+00   4.082400E+00   3.863280E+00   3.680113E+00   3.528736E+00   3.416108E+00   3.325397E+00   3.259215E+00   3.194601E+00   3.127038E+00   3.063812E+00   3.039213E+00   3.014190E+00   3.012258E+00   3.011237E+00   3.004702E+00   2.979520E+00   2.953415E+00   2.898089E+00   2.834985E+00   2.772901E+00   2.718088E+00   2.692114E+00   2.709970E+00   2.779382E+00   2.893894E+00   3.038785E+00   3.197129E+00   3.347991E+00   3.465458E+00   3.536918E+00   3.565845E+00   3.555147E+00   3.505735E+00   3.429990E+00   3.324023E+00   3.222892E+00   3.129980E+00   3.063238E+00   3.021297E+00   3.001045E+00   3.008979E+00   3.033810E+00   3.074978E+00   3.111526E+00   3.131512E+00   3.131919E+00   3.117093E+00   3.074597E+00   3.034731E+00   2.993680E+00   2.965303E+00   2.958050E+00   2.984836E+00   3.067050E+00   3.196634E+00   3.362459E+00   3.524159E+00   3.668179E+00   3.739106E+00   3.748759E+00   3.708047E+00   3.630010E+00   3.534003E+00   3.403646E+00   3.256022E+00   3.102026E+00   2.953231E+00   2.817396E+00   2.714495E+00   2.633873E+00   2.576728E+00   2.543656E+00   2.525852E+00   2.512225E+00   2.502283E+00   2.501048E+00   2.520347E+00   2.552238E+00   2.595083E+00   2.671664E+00   2.768807E+00   2.892145E+00   3.055653E+00   3.236553E+00   3.429419E+00   3.652423E+00   3.877623E+00   4.097432E+00   4.299080E+00   4.471988E+00   4.632908E+00   4.738318E+00   4.800272E+00   4.799268E+00   4.754612E+00   4.666398E+00   4.541266E+00   4.402771E+00   4.262120E+00   4.144648E+00   4.046686E+00   4.001763E+00   3.997385E+00   4.042571E+00   4.127765E+00   4.226718E+00   4.359235E+00   4.514925E+00   4.710829E+00   4.934712E+00   5.205040E+00   5.455477E+00   5.643587E+00   5.717616E+00   5.675606E+00   5.513074E+00   5.266121E+00   4.981724E+00   4.677817E+00   4.378050E+00   4.084846E+00   3.801186E+00   3.529128E+00   3.281341E+00   3.065603E+00   2.875432E+00   2.743178E+00   2.652110E+00   2.600317E+00   2.586802E+00   2.616903E+00   2.692933E+00   2.816308E+00   2.984149E+00   3.192004E+00   3.408732E+00   3.632401E+00   3.836592E+00   4.016847E+00   4.146672E+00   4.244297E+00   4.310077E+00   4.362078E+00   4.400590E+00   4.423517E+00   4.430926E+00   4.437764E+00   4.415924E+00   4.374390E+00   4.306679E+00   4.231927E+00   4.167606E+00   4.107847E+00   4.083477E+00   4.095830E+00   4.140784E+00   4.191571E+00   4.206544E+00   4.196493E+00   4.158290E+00   4.116700E+00   4.076122E+00   4.039315E+00   4.009647E+00
   3.896398E+00   3.808083E+00   3.706673E+00   3.617131E+00   3.544061E+00   3.483341E+00   3.426354E+00   3.386260E+00   3.348499E+00   3.304948E+00   3.237674E+00   3.162098E+00   3.060449E+00   2.958663E+00   2.861072E+00   2.788183E+00   2.738020E+00   2.722095E+00   2.738852E+00   2.785522E+00   2.846942E+00   2.944136E+00   3.081116E+00   3.263690E+00   3.476198E+00   3.718007E+00   3.983395E+00   4.264675E+00   4.516490E+00   4.716324E+00   4.850381E+00   4.915767E+00   4.877830E+00   4.796972E+00   4.627355E+00   4.407831E+00   4.159622E+00   3.904526E+00   3.671365E+00   3.492273E+00   3.347747E+00   3.228993E+00   3.124641E+00   3.028356E+00   2.943781E+00   2.873096E+00   2.827203E+00   2.791506E+00   2.786717E+00   2.800257E+00   2.825131E+00   2.848142E+00   2.864429E+00   2.863668E+00   2.830397E+00   2.785028E+00   2.741796E+00   2.726259E+00   2.749006E+00   2.821676E+00   2.941300E+00   3.095659E+00   3.256274E+00   3.401514E+00   3.504610E+00   3.551239E+00   3.541084E+00   3.483220E+00   3.397010E+00   3.283743E+00   3.158013E+00   3.024982E+00   2.914599E+00   2.825105E+00   2.781482E+00   2.772339E+00   2.795581E+00   2.836113E+00   2.895962E+00   2.947866E+00   2.992604E+00   3.008639E+00   2.996380E+00   2.955638E+00   2.894640E+00   2.837385E+00   2.787099E+00   2.764652E+00   2.784218E+00   2.852150E+00   2.985105E+00   3.145720E+00   3.331815E+00   3.492271E+00   3.601140E+00   3.640714E+00   3.616737E+00   3.548846E+00   3.453865E+00   3.323771E+00   3.169209E+00   2.995839E+00   2.832868E+00   2.694844E+00   2.574044E+00   2.487945E+00   2.434043E+00   2.393610E+00   2.380990E+00   2.366944E+00   2.370528E+00   2.385062E+00   2.415756E+00   2.465974E+00   2.529749E+00   2.615998E+00   2.714136E+00   2.835237E+00   2.981543E+00   3.154577E+00   3.349771E+00   3.570856E+00   3.812908E+00   4.058685E+00   4.280252E+00   4.463791E+00   4.608450E+00   4.703684E+00   4.741213E+00   4.728607E+00   4.661849E+00   4.551269E+00   4.399745E+00   4.235819E+00   4.082087E+00   3.944363E+00   3.856182E+00   3.807021E+00   3.815992E+00   3.887321E+00   4.004818E+00   4.149660E+00   4.328871E+00   4.553312E+00   4.811187E+00   5.114406E+00   5.422277E+00   5.737472E+00   5.979113E+00   6.085240E+00   6.044408E+00   5.856354E+00   5.551711E+00   5.189054E+00   4.810773E+00   4.452384E+00   4.093029E+00   3.748902E+00   3.425312E+00   3.138702E+00   2.889513E+00   2.700765E+00   2.550884E+00   2.445335E+00   2.391742E+00   2.380519E+00   2.413063E+00   2.497895E+00   2.634456E+00   2.831682E+00   3.050532E+00   3.292596E+00   3.532674E+00   3.767344E+00   3.958965E+00   4.114057E+00   4.210287E+00   4.282517E+00   4.320068E+00   4.340172E+00   4.338078E+00   4.335498E+00   4.303486E+00   4.281286E+00   4.231775E+00   4.189723E+00   4.155467E+00   4.129951E+00   4.138994E+00   4.185479E+00   4.259138E+00   4.341252E+00   4.394368E+00   4.415985E+00   4.386428E+00   4.323655E+00   4.237319E+00   4.156279E+00   4.092144E+00   4.036623E+00
   3.901771E+00   3.809852E+00   3.713082E+00   3.630258E+00   3.558571E+00   3.493036E+00   3.438153E+00   3.386717E+00   3.350204E+00   3.288914E+00   3.216573E+00   3.121773E+00   3.023643E+00   2.922849E+00   2.831476E+00   2.753297E+00   2.701867E+00   2.678882E+00   2.699915E+00   2.742659E+00   2.817704E+00   2.926535E+00   3.056196E+00   3.230146E+00   3.438178E+00   3.675225E+00   3.932311E+00   4.187338E+00   4.434996E+00   4.641555E+00   4.791964E+00   4.872124E+00   4.908544E+00   4.864480E+00   4.746616E+00   4.554055E+00   4.323943E+00   4.030300E+00   3.759175E+00   3.508804E+00   3.314169E+00   3.156743E+00   3.022810E+00   2.903889E+00   2.799850E+00   2.721585E+00   2.671402E+00   2.639308E+00   2.636951E+00   2.670627E+00   2.739046E+00   2.823299E+00   2.910425E+00   2.960936E+00   2.976488E+00   2.960598E+00   2.945739E+00   2.945051E+00   2.983062E+00   3.057661E+00   3.184427E+00   3.341340E+00   3.498618E+00   3.626993E+00   3.702841E+00   3.705058E+00   3.643093E+00   3.534682E+00   3.393859E+00   3.237445E+00   3.073857E+00   2.923864E+00   2.788148E+00   2.691062E+00   2.641560E+00   2.636136E+00   2.665245E+00   2.729393E+00   2.800164E+00   2.866436E+00   2.918461E+00   2.931675E+00   2.906533E+00   2.852069E+00   2.782136E+00   2.705335E+00   2.637010E+00   2.599560E+00   2.599469E+00   2.654090E+00   2.770006E+00   2.935993E+00   3.119478E+00   3.298944E+00   3.442407E+00   3.518435E+00   3.534352E+00   3.508696E+00   3.444740E+00   3.340720E+00   3.192636E+00   3.012934E+00   2.849311E+00   2.706575E+00   2.596106E+00   2.518721E+00   2.464272E+00   2.428284E+00   2.404600E+00   2.406803E+00   2.422136E+00   2.448464E+00   2.486566E+00   2.553122E+00   2.621621E+00   2.697958E+00   2.789488E+00   2.882881E+00   3.000190E+00   3.140756E+00   3.319544E+00   3.523712E+00   3.753255E+00   3.991362E+00   4.187624E+00   4.355294E+00   4.461080E+00   4.499414E+00   4.505298E+00   4.484680E+00   4.418687E+00   4.309424E+00   4.154331E+00   4.001403E+00   3.840179E+00   3.701555E+00   3.600776E+00   3.565464E+00   3.584598E+00   3.674237E+00   3.811212E+00   4.003815E+00   4.232702E+00   4.505421E+00   4.816876E+00   5.151909E+00   5.489801E+00   5.837481E+00   6.113711E+00   6.269274E+00   6.251785E+00   6.082426E+00   5.759643E+00   5.355881E+00   4.928338E+00   4.505098E+00   4.099374E+00   3.720667E+00   3.368882E+00   3.066578E+00   2.811324E+00   2.601276E+00   2.445694E+00   2.332549E+00   2.270886E+00   2.255136E+00   2.288540E+00   2.376566E+00   2.523758E+00   2.715883E+00   2.945436E+00   3.191510E+00   3.444009E+00   3.689793E+00   3.914211E+00   4.080810E+00   4.193628E+00   4.247478E+00   4.280211E+00   4.269130E+00   4.248533E+00   4.207216E+00   4.173142E+00   4.135639E+00   4.108424E+00   4.081669E+00   4.088916E+00   4.123190E+00   4.194068E+00   4.301564E+00   4.424315E+00   4.541859E+00   4.623717E+00   4.634556E+00   4.598547E+00   4.523119E+00   4.414996E+00   4.300539E+00   4.189363E+00   4.089435E+00
   3.927712E+00   3.860501E+00   3.788451E+00   3.722977E+00   3.643461E+00   3.574793E+00   3.506896E+00   3.459883E+00   3.412369E+00   3.347495E+00   3.262838E+00   3.164138E+00   3.052912E+00   2.956243E+00   2.864914E+00   2.791439E+00   2.733382E+00   2.716293E+00   2.734746E+00   2.797970E+00   2.881652E+00   2.997605E+00   3.127785E+00   3.292783E+00   3.480080E+00   3.680834E+00   3.901028E+00   4.137624E+00   4.357933E+00   4.558755E+00   4.715719E+00   4.836790E+00   4.928614E+00   4.954360E+00   4.886517E+00   4.749215E+00   4.529137E+00   4.227130E+00   3.908423E+00   3.604396E+00   3.351193E+00   3.144781E+00   2.970986E+00   2.837221E+00   2.728437E+00   2.642924E+00   2.593957E+00   2.572742E+00   2.599966E+00   2.667248E+00   2.776413E+00   2.913709E+00   3.051888E+00   3.166328E+00   3.228341E+00   3.264143E+00   3.281437E+00   3.301320E+00   3.351077E+00   3.445699E+00   3.576532E+00   3.732221E+00   3.894202E+00   4.002431E+00   4.042372E+00   3.995143E+00   3.872459E+00   3.710700E+00   3.517570E+00   3.312985E+00   3.125008E+00   2.946075E+00   2.803026E+00   2.694201E+00   2.638712E+00   2.634017E+00   2.659446E+00   2.716714E+00   2.789954E+00   2.847663E+00   2.889900E+00   2.890669E+00   2.853122E+00   2.790222E+00   2.706981E+00   2.614081E+00   2.526919E+00   2.465654E+00   2.452609E+00   2.498141E+00   2.602010E+00   2.761102E+00   2.956124E+00   3.156537E+00   3.335380E+00   3.460925E+00   3.530703E+00   3.550601E+00   3.522286E+00   3.436690E+00   3.299421E+00   3.143738E+00   2.984250E+00   2.847495E+00   2.743536E+00   2.675192E+00   2.635891E+00   2.605945E+00   2.594621E+00   2.592104E+00   2.609216E+00   2.639269E+00   2.691202E+00   2.750626E+00   2.812811E+00   2.870452E+00   2.921095E+00   2.980710E+00   3.060272E+00   3.169095E+00   3.313134E+00   3.482653E+00   3.679103E+00   3.871626E+00   4.036137E+00   4.142745E+00   4.185133E+00   4.175964E+00   4.163121E+00   4.129579E+00   4.091688E+00   4.017471E+00   3.917068E+00   3.790951E+00   3.647778E+00   3.508755E+00   3.404454E+00   3.357779E+00   3.388442E+00   3.479376E+00   3.631913E+00   3.853791E+00   4.107591E+00   4.400716E+00   4.727077E+00   5.081709E+00   5.440429E+00   5.797130E+00   6.092646E+00   6.275371E+00   6.310969E+00   6.158731E+00   5.832874E+00   5.430394E+00   4.999075E+00   4.559212E+00   4.133641E+00   3.732267E+00   3.385721E+00   3.081046E+00   2.821534E+00   2.606700E+00   2.437395E+00   2.311510E+00   2.234435E+00   2.206620E+00   2.235925E+00   2.315306E+00   2.456299E+00   2.644507E+00   2.873920E+00   3.128566E+00   3.389815E+00   3.645112E+00   3.861888E+00   4.030718E+00   4.143498E+00   4.209919E+00   4.220948E+00   4.216712E+00   4.168619E+00   4.131806E+00   4.084404E+00   4.053962E+00   4.027882E+00   4.034781E+00   4.066234E+00   4.130926E+00   4.238304E+00   4.389207E+00   4.553815E+00   4.688559E+00   4.765262E+00   4.777227E+00   4.730158E+00   4.655403E+00   4.559707E+00   4.432979E+00   4.291805E+00   4.145227E+00
   3.979172E+00   3.955962E+00   3.915911E+00   3.845926E+00   3.786989E+00   3.702004E+00   3.640131E+00   3.584986E+00   3.538324E+00   3.469626E+00   3.374419E+00   3.260529E+00   3.136859E+00   3.032416E+00   2.942815E+00   2.871455E+00   2.819465E+00   2.790695E+00   2.819963E+00   2.883413E+00   2.984327E+00   3.110284E+00   3.236861E+00   3.391292E+00   3.556546E+00   3.739701E+00   3.940933E+00   4.130157E+00   4.330400E+00   4.528291E+00   4.721523E+00   4.875618E+00   4.993413E+00   5.067695E+00   5.074350E+00   4.980241E+00   4.779044E+00   4.475703E+00   4.124090E+00   3.773813E+00   3.476417E+00   3.219477E+00   3.016396E+00   2.855259E+00   2.731682E+00   2.650792E+00   2.602295E+00   2.606489E+00   2.658987E+00   2.753787E+00   2.901661E+00   3.083398E+00   3.264513E+00   3.425197E+00   3.535502E+00   3.600523E+00   3.640564E+00   3.670510E+00   3.741751E+00   3.854822E+00   4.002950E+00   4.173404E+00   4.335510E+00   4.434121E+00   4.437167E+00   4.350759E+00   4.188175E+00   3.979314E+00   3.749004E+00   3.519844E+00   3.295228E+00   3.104151E+00   2.943543E+00   2.832498E+00   2.759776E+00   2.730291E+00   2.735353E+00   2.771940E+00   2.824009E+00   2.866939E+00   2.880510E+00   2.862862E+00   2.808563E+00   2.741868E+00   2.651255E+00   2.550754E+00   2.459997E+00   2.393903E+00   2.382151E+00   2.432375E+00   2.542709E+00   2.699083E+00   2.900598E+00   3.110393E+00   3.316251E+00   3.494133E+00   3.620654E+00   3.673887E+00   3.670307E+00   3.599197E+00   3.483486E+00   3.343505E+00   3.199797E+00   3.071531E+00   2.981567E+00   2.925642E+00   2.895432E+00   2.879107E+00   2.873670E+00   2.872955E+00   2.885194E+00   2.914203E+00   2.965172E+00   3.022354E+00   3.066151E+00   3.108227E+00   3.121950E+00   3.138762E+00   3.170269E+00   3.220761E+00   3.308148E+00   3.420562E+00   3.552967E+00   3.682689E+00   3.774090E+00   3.813837E+00   3.802185E+00   3.771076E+00   3.743722E+00   3.736431E+00   3.735213E+00   3.735768E+00   3.698829E+00   3.619799E+00   3.520811E+00   3.397763E+00   3.291303E+00   3.229145E+00   3.249201E+00   3.343030E+00   3.512304E+00   3.753280E+00   4.030067E+00   4.332456E+00   4.645517E+00   4.978469E+00   5.325712E+00   5.670451E+00   5.978491E+00   6.190474E+00   6.240267E+00   6.110871E+00   5.835206E+00   5.473129E+00   5.047731E+00   4.617764E+00   4.185616E+00   3.798369E+00   3.451559E+00   3.153492E+00   2.899706E+00   2.673261E+00   2.492477E+00   2.357317E+00   2.272753E+00   2.236597E+00   2.258252E+00   2.327426E+00   2.455789E+00   2.632377E+00   2.854439E+00   3.111567E+00   3.386481E+00   3.643654E+00   3.849337E+00   4.000508E+00   4.092802E+00   4.132265E+00   4.143250E+00   4.116816E+00   4.075184E+00   4.033074E+00   3.995954E+00   3.960832E+00   3.950417E+00   3.955926E+00   4.001446E+00   4.076932E+00   4.203907E+00   4.373255E+00   4.538246E+00   4.676780E+00   4.760322E+00   4.769382E+00   4.729148E+00   4.656842E+00   4.567622E+00   4.447123E+00   4.311670E+00   4.159202E+00
   4.043849E+00   4.084060E+00   4.071275E+00   4.037082E+00   3.960676E+00   3.884833E+00   3.813354E+00   3.759228E+00   3.692766E+00   3.603863E+00   3.479836E+00   3.349942E+00   3.221115E+00   3.113888E+00   3.027431E+00   2.968253E+00   2.913385E+00   2.900684E+00   2.924096E+00   2.988810E+00   3.087901E+00   3.214131E+00   3.341735E+00   3.478299E+00   3.626858E+00   3.796970E+00   3.965273E+00   4.147221E+00   4.341318E+00   4.551282E+00   4.755841E+00   4.954252E+00   5.104826E+00   5.217335E+00   5.243752E+00   5.180191E+00   5.009295E+00   4.736623E+00   4.380929E+00   4.004163E+00   3.652067E+00   3.364025E+00   3.126947E+00   2.945285E+00   2.819801E+00   2.735992E+00   2.707200E+00   2.716934E+00   2.787389E+00   2.909110E+00   3.080513E+00   3.272409E+00   3.458205E+00   3.628441E+00   3.748046E+00   3.826236E+00   3.874414E+00   3.940997E+00   4.035981E+00   4.175412E+00   4.366333E+00   4.565563E+00   4.748452E+00   4.855364E+00   4.846837E+00   4.723242E+00   4.529477E+00   4.300638E+00   4.056263E+00   3.805015E+00   3.577302E+00   3.378126E+00   3.201297E+00   3.065212E+00   2.967626E+00   2.905408E+00   2.885781E+00   2.880383E+00   2.896041E+00   2.904739E+00   2.899868E+00   2.859049E+00   2.798515E+00   2.724070E+00   2.642855E+00   2.555070E+00   2.475667E+00   2.430576E+00   2.431330E+00   2.496902E+00   2.613547E+00   2.781965E+00   2.975862E+00   3.193308E+00   3.412120E+00   3.607933E+00   3.763188E+00   3.837700E+00   3.842525E+00   3.784256E+00   3.672160E+00   3.546292E+00   3.415356E+00   3.298152E+00   3.211919E+00   3.164101E+00   3.148386E+00   3.143239E+00   3.147580E+00   3.159551E+00   3.178597E+00   3.207306E+00   3.260000E+00   3.310776E+00   3.340277E+00   3.345671E+00   3.324339E+00   3.287626E+00   3.258035E+00   3.244674E+00   3.259412E+00   3.297590E+00   3.353949E+00   3.409613E+00   3.441803E+00   3.443726E+00   3.414655E+00   3.381724E+00   3.374549E+00   3.389747E+00   3.444416E+00   3.502338E+00   3.535151E+00   3.518665E+00   3.461536E+00   3.369157E+00   3.283975E+00   3.227420E+00   3.242526E+00   3.322023E+00   3.490542E+00   3.741243E+00   4.033967E+00   4.338485E+00   4.636288E+00   4.931762E+00   5.240031E+00   5.557380E+00   5.847281E+00   6.060269E+00   6.143974E+00   6.063704E+00   5.840862E+00   5.502430E+00   5.103144E+00   4.675849E+00   4.270027E+00   3.886318E+00   3.560334E+00   3.278230E+00   3.028509E+00   2.793836E+00   2.601091E+00   2.452557E+00   2.352242E+00   2.309241E+00   2.314233E+00   2.382675E+00   2.499889E+00   2.669214E+00   2.872206E+00   3.123050E+00   3.385483E+00   3.627846E+00   3.815369E+00   3.944419E+00   4.012375E+00   4.036188E+00   4.032352E+00   3.990761E+00   3.961429E+00   3.941646E+00   3.915579E+00   3.893975E+00   3.876465E+00   3.879157E+00   3.914796E+00   3.979851E+00   4.089392E+00   4.230333E+00   4.382960E+00   4.502151E+00   4.582778E+00   4.595349E+00   4.576935E+00   4.528541E+00   4.443553E+00   4.361395E+00   4.255490E+00   4.139437E+00
   4.118091E+00   4.210634E+00   4.262481E+00   4.249752E+00   4.208188E+00   4.124805E+00   4.064825E+00   3.997026E+00   3.908888E+00   3.779250E+00   3.618393E+00   3.458616E+00   3.314989E+00   3.196343E+00   3.115344E+00   3.067823E+00   3.035806E+00   3.024056E+00   3.037164E+00   3.090707E+00   3.170166E+00   3.275842E+00   3.403139E+00   3.531488E+00   3.671847E+00   3.815921E+00   3.979469E+00   4.158979E+00   4.382843E+00   4.595776E+00   4.813241E+00   5.005413E+00   5.181112E+00   5.289059E+00   5.335774E+00   5.285199E+00   5.156281E+00   4.925257E+00   4.611856E+00   4.239658E+00   3.877852E+00   3.554576E+00   3.295397E+00   3.101402E+00   2.960021E+00   2.877414E+00   2.847080E+00   2.876805E+00   2.957812E+00   3.078369E+00   3.238281E+00   3.413755E+00   3.595437E+00   3.736353E+00   3.842641E+00   3.909823E+00   3.973167E+00   4.057778E+00   4.187150E+00   4.375844E+00   4.611130E+00   4.858274E+00   5.050413E+00   5.163656E+00   5.160838E+00   5.043026E+00   4.841781E+00   4.609264E+00   4.365025E+00   4.126769E+00   3.915997E+00   3.719406E+00   3.534249E+00   3.381396E+00   3.237780E+00   3.137579E+00   3.067600E+00   3.019668E+00   2.986185E+00   2.955383E+00   2.920637E+00   2.867106E+00   2.804505E+00   2.742098E+00   2.669358E+00   2.616683E+00   2.576020E+00   2.565888E+00   2.601270E+00   2.681844E+00   2.828918E+00   3.010732E+00   3.223090E+00   3.450051E+00   3.653539E+00   3.812895E+00   3.942944E+00   4.020203E+00   4.008717E+00   3.951857E+00   3.841064E+00   3.725725E+00   3.609434E+00   3.505679E+00   3.425115E+00   3.372691E+00   3.342192E+00   3.343363E+00   3.353895E+00   3.379529E+00   3.413105E+00   3.449268E+00   3.492177E+00   3.513007E+00   3.511124E+00   3.486035E+00   3.432765E+00   3.358322E+00   3.270195E+00   3.189769E+00   3.132515E+00   3.100074E+00   3.091045E+00   3.085956E+00   3.077031E+00   3.064007E+00   3.045781E+00   3.046085E+00   3.069378E+00   3.128572E+00   3.219324E+00   3.329285E+00   3.412787E+00   3.460240E+00   3.453509E+00   3.415289E+00   3.354085E+00   3.319172E+00   3.333326E+00   3.424541E+00   3.582942E+00   3.817649E+00   4.090602E+00   4.375835E+00   4.642451E+00   4.914917E+00   5.189087E+00   5.481925E+00   5.739507E+00   5.937292E+00   6.021464E+00   5.969891E+00   5.783936E+00   5.507290E+00   5.158927E+00   4.774423E+00   4.399102E+00   4.037439E+00   3.708066E+00   3.425447E+00   3.169435E+00   2.936407E+00   2.729688E+00   2.576835E+00   2.472865E+00   2.423054E+00   2.430809E+00   2.485470E+00   2.601911E+00   2.752098E+00   2.948967E+00   3.173064E+00   3.409299E+00   3.627158E+00   3.804415E+00   3.901579E+00   3.955878E+00   3.969265E+00   3.954017E+00   3.918478E+00   3.893839E+00   3.873602E+00   3.863164E+00   3.837164E+00   3.819015E+00   3.803520E+00   3.816950E+00   3.858511E+00   3.935155E+00   4.039019E+00   4.146488E+00   4.245213E+00   4.296670E+00   4.321946E+00   4.321915E+00   4.299211E+00   4.259139E+00   4.217827E+00   4.165828E+00   4.085021E+00