# LPF package for  MODFLOW-2005, generated by Flopy.
         0    -1E+30         0  
         0
         0
   1.000000E+00
         0
         0
INTERNAL               1 (200E15.6) -1 #hk layer 1                    
   3.962850E+00   3.935376E+00   3.904769E+00   3.862786E+00   3.834060E+00   3.813645E+00   3.802287E+00   3.789533E+00   3.787901E+00   3.761618E+00   3.732159E+00   3.689107E+00   3.641848E+00   3.585417E+00   3.527802E+00   3.488885E+00   3.471368E+00   3.475682E+00   3.487935E+00   3.515029E+00   3.555532E+00   3.610246E+00   3.676259E+00   3.769755E+00   3.856434E+00   3.942619E+00   4.023997E+00   4.102587E+00   4.173362E+00   4.228896E+00   4.263529E+00   4.278252E+00   4.262607E+00   4.208914E+00   4.144306E+00   4.061233E+00   3.983850E+00   3.902684E+00   3.837506E+00   3.780583E+00   3.734515E+00   3.705146E+00   3.677746E+00   3.641513E+00   3.612160E+00   3.596195E+00   3.597799E+00   3.596331E+00   3.596916E+00   3.587517E+00   3.565711E+00   3.538293E+00   3.502426E+00   3.460743E+00   3.425012E+00   3.380280E+00   3.347980E+00   3.330563E+00   3.342545E+00   3.384745E+00   3.437868E+00   3.508648E+00   3.589003E+00   3.667574E+00   3.724953E+00   3.774238E+00   3.803838E+00   3.824092E+00   3.826057E+00   3.806128E+00   3.768709E+00   3.724331E+00   3.683970E+00   3.658925E+00   3.654837E+00   3.647286E+00   3.655564E+00   3.651877E+00   3.644689E+00   3.635265E+00   3.635854E+00   3.623814E+00   3.611443E+00   3.599452E+00   3.583008E+00   3.572105E+00   3.569831E+00   3.582102E+00   3.598030E+00   3.648803E+00   3.714662E+00   3.790664E+00   3.863047E+00   3.918101E+00   3.937850E+00   3.934092E+00   3.911616E+00   3.868002E+00   3.820047E+00   3.755105E+00   3.688685E+00   3.614256E+00   3.538722E+00   3.483432E+00   3.436704E+00   3.398510E+00   3.375333E+00   3.354231E+00   3.352281E+00   3.340758E+00   3.328491E+00   3.308806E+00   3.299232E+00   3.304928E+00   3.313794E+00   3.343976E+00   3.403417E+00   3.481962E+00   3.577518E+00   3.682034E+00   3.773312E+00   3.873596E+00   3.963256E+00   4.047592E+00   4.127311E+00   4.192808E+00   4.268392E+00   4.325325E+00   4.356905E+00   4.373140E+00   4.360272E+00   4.335583E+00   4.308338E+00   4.267524E+00   4.212881E+00   4.168947E+00   4.110930E+00   4.072199E+00   4.050304E+00   4.051444E+00   4.074148E+00   4.106721E+00   4.158716E+00   4.213245E+00   4.279455E+00   4.349051E+00   4.431339E+00   4.525135E+00   4.590668E+00   4.616896E+00   4.595809E+00   4.545314E+00   4.457851E+00   4.370923E+00   4.269242E+00   4.163994E+00   4.064008E+00   3.962085E+00   3.866472E+00   3.760683E+00   3.673492E+00   3.572995E+00   3.493750E+00   3.439939E+00   3.401811E+00   3.385050E+00   3.389115E+00   3.415213E+00   3.461438E+00   3.544981E+00   3.647869E+00   3.756996E+00   3.870777E+00   3.969805E+00   4.043691E+00   4.094956E+00   4.129552E+00   4.160954E+00   4.187447E+00   4.202486E+00   4.222291E+00   4.238374E+00   4.251754E+00   4.250443E+00   4.238953E+00   4.202247E+00   4.153150E+00   4.089991E+00   4.032115E+00   3.993674E+00   3.975598E+00   3.977418E+00   3.985321E+00   4.000336E+00   4.005160E+00   4.010202E+00   4.009882E+00   3.991128E+00   3.983135E+00   3.979257E+00
   3.931195E+00   3.887932E+00   3.830067E+00   3.762930E+00   3.694899E+00   3.655880E+00   3.623876E+00   3.600081E+00   3.585788E+00   3.569341E+00   3.518431E+00   3.459152E+00   3.366449E+00   3.277794E+00   3.189191E+00   3.124484E+00   3.088253E+00   3.089595E+00   3.109010E+00   3.146059E+00   3.207025E+00   3.294871E+00   3.408900E+00   3.546165E+00   3.701275E+00   3.869373E+00   4.044177E+00   4.212896E+00   4.363899E+00   4.476882E+00   4.542881E+00   4.578730E+00   4.539737E+00   4.450348E+00   4.314258E+00   4.167378E+00   4.017339E+00   3.866865E+00   3.721617E+00   3.617569E+00   3.532363E+00   3.477804E+00   3.426784E+00   3.378241E+00   3.326943E+00   3.299362E+00   3.291311E+00   3.285381E+00   3.282652E+00   3.269228E+00   3.241665E+00   3.197796E+00   3.151608E+00   3.091278E+00   3.018891E+00   2.952729E+00   2.904489E+00   2.881164E+00   2.896727E+00   2.955769E+00   3.048261E+00   3.177461E+00   3.316518E+00   3.439488E+00   3.541041E+00   3.620393E+00   3.659988E+00   3.671086E+00   3.654723E+00   3.607965E+00   3.536994E+00   3.463230E+00   3.395014E+00   3.346781E+00   3.318423E+00   3.305916E+00   3.306956E+00   3.317461E+00   3.330945E+00   3.344843E+00   3.346337E+00   3.339793E+00   3.320361E+00   3.291560E+00   3.255475E+00   3.223961E+00   3.214048E+00   3.222955E+00   3.256585E+00   3.326350E+00   3.449151E+00   3.571184E+00   3.707659E+00   3.807768E+00   3.860518E+00   3.865579E+00   3.817206E+00   3.747923E+00   3.658701E+00   3.552972E+00   3.435987E+00   3.309174E+00   3.182673E+00   3.081928E+00   3.002630E+00   2.939439E+00   2.898906E+00   2.875465E+00   2.857738E+00   2.842514E+00   2.823013E+00   2.810411E+00   2.814425E+00   2.823951E+00   2.855733E+00   2.913268E+00   2.997039E+00   3.108516E+00   3.251940E+00   3.408493E+00   3.571326E+00   3.748958E+00   3.920451E+00   4.087456E+00   4.236849E+00   4.382312E+00   4.512165E+00   4.608543E+00   4.649053E+00   4.659427E+00   4.639368E+00   4.593775E+00   4.519154E+00   4.415609E+00   4.309448E+00   4.212348E+00   4.139910E+00   4.086498E+00   4.073566E+00   4.088415E+00   4.138792E+00   4.222649E+00   4.297333E+00   4.406960E+00   4.525963E+00   4.681147E+00   4.854835E+00   5.038143E+00   5.182846E+00   5.230593E+00   5.195564E+00   5.072735E+00   4.905247E+00   4.710439E+00   4.497375E+00   4.284615E+00   4.077148E+00   3.883451E+00   3.689358E+00   3.512997E+00   3.338964E+00   3.194787E+00   3.066926E+00   2.986052E+00   2.935628E+00   2.910816E+00   2.919092E+00   2.971687E+00   3.068418E+00   3.208155E+00   3.374215E+00   3.558501E+00   3.746875E+00   3.910049E+00   4.046013E+00   4.142636E+00   4.213610E+00   4.270978E+00   4.313307E+00   4.348133E+00   4.379371E+00   4.414714E+00   4.425018E+00   4.420223E+00   4.382083E+00   4.328773E+00   4.247868E+00   4.153142E+00   4.068518E+00   4.005035E+00   4.004107E+00   4.018960E+00   4.044935E+00   4.059625E+00   4.058000E+00   4.054754E+00   4.036799E+00   4.011678E+00   3.986637E+00   3.982274E+00
   3.911577E+00   3.831757E+00   3.749455E+00   3.665729E+00   3.598845E+00   3.527933E+00   3.482472E+00   3.448544E+00   3.426689E+00   3.390118E+00   3.342519E+00   3.261764E+00   3.174772E+00   3.070688E+00   2.974738E+00   2.897398E+00   2.853405E+00   2.846089E+00   2.866317E+00   2.912574E+00   2.976528E+00   3.079182E+00   3.215735E+00   3.387481E+00   3.576899E+00   3.793224E+00   4.037843E+00   4.276486E+00   4.495386E+00   4.657499E+00   4.768450E+00   4.801697E+00   4.763198E+00   4.653159E+00   4.501116E+00   4.293539E+00   4.082908E+00   3.863735E+00   3.680504E+00   3.529058E+00   3.416351E+00   3.325552E+00   3.259271E+00   3.194552E+00   3.126885E+00   3.063556E+00   3.038858E+00   3.013739E+00   3.011718E+00   3.010616E+00   3.004015E+00   2.978788E+00   2.952660E+00   2.897343E+00   2.834273E+00   2.772243E+00   2.717495E+00   2.691589E+00   2.709507E+00   2.778976E+00   2.893537E+00   3.038471E+00   3.196857E+00   3.347759E+00   3.465260E+00   3.536753E+00   3.565707E+00   3.555035E+00   3.505642E+00   3.429915E+00   3.323964E+00   3.222844E+00   3.129939E+00   3.063194E+00   3.021245E+00   3.000976E+00   3.008889E+00   3.033686E+00   3.074812E+00   3.111309E+00   3.131237E+00   3.131588E+00   3.116702E+00   3.074149E+00   3.034227E+00   2.993125E+00   2.964701E+00   2.957404E+00   2.984144E+00   3.066317E+00   3.195862E+00   3.361659E+00   3.523346E+00   3.667369E+00   3.738328E+00   3.748031E+00   3.707376E+00   3.629402E+00   3.533465E+00   3.403178E+00   3.255624E+00   3.101693E+00   2.952956E+00   2.817175E+00   2.714324E+00   2.633742E+00   2.576630E+00   2.543586E+00   2.525808E+00   2.512205E+00   2.502288E+00   2.501087E+00   2.520428E+00   2.552373E+00   2.595279E+00   2.671935E+00   2.769163E+00   2.892601E+00   3.056219E+00   3.237236E+00   3.430209E+00   3.653315E+00   3.878592E+00   4.098447E+00   4.300100E+00   4.472979E+00   4.633841E+00   4.739168E+00   4.801022E+00   4.799905E+00   4.755135E+00   4.666808E+00   4.541573E+00   4.402989E+00   4.262273E+00   4.144761E+00   4.046782E+00   4.001850E+00   3.997476E+00   4.042668E+00   4.127866E+00   4.226819E+00   4.359329E+00   4.515006E+00   4.710880E+00   4.934724E+00   5.204987E+00   5.455350E+00   5.643368E+00   5.717319E+00   5.675237E+00   5.512660E+00   5.265666E+00   4.981262E+00   4.677351E+00   4.377596E+00   4.084404E+00   3.800767E+00   3.528734E+00   3.280972E+00   3.065258E+00   2.875111E+00   2.742876E+00   2.651827E+00   2.600052E+00   2.586553E+00   2.616667E+00   2.692708E+00   2.816089E+00   2.983929E+00   3.191767E+00   3.408473E+00   3.632112E+00   3.836268E+00   4.016481E+00   4.146265E+00   4.243850E+00   4.309603E+00   4.361592E+00   4.400113E+00   4.423065E+00   4.430523E+00   4.437426E+00   4.415664E+00   4.374207E+00   4.306560E+00   4.231847E+00   4.167540E+00   4.107774E+00   4.083384E+00   4.095702E+00   4.140615E+00   4.191360E+00   4.206299E+00   4.196229E+00   4.158025E+00   4.116456E+00   4.075920E+00   4.039171E+00   4.009570E+00
   3.896524E+00   3.808322E+00   3.707008E+00   3.617535E+00   3.544505E+00   3.483792E+00   3.426779E+00   3.386634E+00   3.348809E+00   3.305192E+00   3.237860E+00   3.162243E+00   3.060573E+00   2.958784E+00   2.861205E+00   2.788333E+00   2.738188E+00   2.722275E+00   2.739035E+00   2.785696E+00   2.847096E+00   2.944268E+00   3.081226E+00   3.263784E+00   3.476283E+00   3.718098E+00   3.983513E+00   4.264845E+00   4.516736E+00   4.716670E+00   4.850837E+00   4.916335E+00   4.878479E+00   4.797676E+00   4.628067E+00   4.408518E+00   4.160254E+00   3.905085E+00   3.671839E+00   3.492660E+00   3.348043E+00   3.229189E+00   3.124734E+00   3.028348E+00   2.943673E+00   2.872890E+00   2.826898E+00   2.791106E+00   2.786220E+00   2.799664E+00   2.824450E+00   2.847389E+00   2.863628E+00   2.862853E+00   2.829606E+00   2.784292E+00   2.741136E+00   2.725684E+00   2.748514E+00   2.821262E+00   2.940958E+00   3.095381E+00   3.256060E+00   3.401354E+00   3.504498E+00   3.551168E+00   3.541049E+00   3.483205E+00   3.397004E+00   3.283743E+00   3.158013E+00   3.024977E+00   2.914584E+00   2.825074E+00   2.781426E+00   2.772249E+00   2.795451E+00   2.835934E+00   2.895725E+00   2.947562E+00   2.992227E+00   3.008194E+00   2.995872E+00   2.955073E+00   2.894026E+00   2.836725E+00   2.786400E+00   2.763915E+00   2.783441E+00   2.851334E+00   2.984246E+00   3.144832E+00   3.330909E+00   3.491371E+00   3.600271E+00   3.639905E+00   3.616002E+00   3.548194E+00   3.453301E+00   3.323297E+00   3.168819E+00   2.995528E+00   2.832625E+00   2.694663E+00   2.573915E+00   2.487860E+00   2.433990E+00   2.393586E+00   2.380990E+00   2.366968E+00   2.370579E+00   2.385144E+00   2.415881E+00   2.466155E+00   2.530003E+00   2.616337E+00   2.714577E+00   2.835791E+00   2.982226E+00   3.155391E+00   3.350713E+00   3.571915E+00   3.814062E+00   4.059901E+00   4.281479E+00   4.464984E+00   4.609567E+00   4.704697E+00   4.742094E+00   4.729350E+00   4.662447E+00   4.551729E+00   4.400078E+00   4.236051E+00   4.082245E+00   3.944477E+00   3.856277E+00   3.807112E+00   3.816089E+00   3.887423E+00   4.004921E+00   4.149757E+00   4.328953E+00   4.553364E+00   4.811195E+00   5.114352E+00   5.422144E+00   5.737236E+00   5.978770E+00   6.084794E+00   6.043884E+00   5.855779E+00   5.551118E+00   5.188453E+00   4.810188E+00   4.451816E+00   4.092489E+00   3.748399E+00   3.424845E+00   3.138269E+00   2.889115E+00   2.700397E+00   2.550541E+00   2.445016E+00   2.391445E+00   2.380240E+00   2.412797E+00   2.497639E+00   2.634199E+00   2.831418E+00   3.050250E+00   3.292284E+00   3.532324E+00   3.766945E+00   3.958514E+00   4.113550E+00   4.209724E+00   4.281907E+00   4.319430E+00   4.339535E+00   4.337468E+00   4.334946E+00   4.303013E+00   4.280895E+00   4.231466E+00   4.189477E+00   4.155258E+00   4.129748E+00   4.138776E+00   4.185227E+00   4.258831E+00   4.340893E+00   4.393956E+00   4.415541E+00   4.385972E+00   4.323218E+00   4.236927E+00   4.155960E+00   4.091917E+00   4.036506E+00
   3.901895E+00   3.810090E+00   3.713417E+00   3.630668E+00   3.559022E+00   3.493492E+00   3.438580E+00   3.387090E+00   3.350510E+00   3.289148E+00   3.216751E+00   3.121912E+00   3.023768E+00   2.922978E+00   2.831624E+00   2.753468E+00   2.702057E+00   2.679085E+00   2.700122E+00   2.742862E+00   2.817895E+00   2.926715E+00   3.056367E+00   3.230314E+00   3.438360E+00   3.675437E+00   3.932578E+00   4.187677E+00   4.435431E+00   4.642104E+00   4.792627E+00   4.872889E+00   4.909388E+00   4.865365E+00   4.747490E+00   4.554878E+00   4.324689E+00   4.030938E+00   3.759707E+00   3.509230E+00   3.314497E+00   3.156975E+00   3.022951E+00   2.903942E+00   2.799820E+00   2.721472E+00   2.671205E+00   2.639023E+00   2.636573E+00   2.670147E+00   2.738463E+00   2.822616E+00   2.909667E+00   2.960137E+00   2.975697E+00   2.959855E+00   2.945074E+00   2.944486E+00   2.982602E+00   3.057307E+00   3.184172E+00   3.341182E+00   3.498552E+00   3.627005E+00   3.702919E+00   3.705185E+00   3.643245E+00   3.534843E+00   3.394011E+00   3.237579E+00   3.073964E+00   2.923940E+00   2.788189E+00   2.691064E+00   2.641519E+00   2.636041E+00   2.665091E+00   2.729172E+00   2.799870E+00   2.866065E+00   2.918007E+00   2.931147E+00   2.905941E+00   2.851427E+00   2.781455E+00   2.704624E+00   2.636274E+00   2.598798E+00   2.598678E+00   2.653267E+00   2.769147E+00   2.935103E+00   3.118574E+00   3.298045E+00   3.441541E+00   3.517633E+00   3.533634E+00   3.508069E+00   3.444212E+00   3.340296E+00   3.192312E+00   3.012703E+00   2.849157E+00   2.706487E+00   2.596072E+00   2.518730E+00   2.464312E+00   2.428349E+00   2.404688E+00   2.406915E+00   2.422270E+00   2.448630E+00   2.486771E+00   2.553388E+00   2.621962E+00   2.698391E+00   2.790029E+00   2.883543E+00   3.000980E+00   3.141681E+00   3.320604E+00   3.524891E+00   3.754534E+00   3.992705E+00   4.188978E+00   4.356604E+00   4.462295E+00   4.500499E+00   4.506230E+00   4.485455E+00   4.419300E+00   4.309881E+00   4.154651E+00   4.001616E+00   3.840317E+00   3.701648E+00   3.600850E+00   3.565532E+00   3.584673E+00   3.674315E+00   3.811286E+00   4.003877E+00   4.232738E+00   4.505412E+00   4.816803E+00   5.151749E+00   5.489533E+00   5.837096E+00   6.113203E+00   6.268661E+00   6.251091E+00   6.081694E+00   5.758906E+00   5.355167E+00   4.927658E+00   4.504457E+00   4.098779E+00   3.720117E+00   3.368376E+00   3.066113E+00   2.810896E+00   2.600882E+00   2.445333E+00   2.332218E+00   2.270581E+00   2.254849E+00   2.288269E+00   2.376303E+00   2.523495E+00   2.715611E+00   2.945144E+00   3.191184E+00   3.443631E+00   3.689353E+00   3.913699E+00   4.080221E+00   4.192962E+00   4.246743E+00   4.279429E+00   4.268333E+00   4.247756E+00   4.206493E+00   4.172498E+00   4.135082E+00   4.107944E+00   4.081246E+00   4.088521E+00   4.122795E+00   4.193646E+00   4.301090E+00   4.423778E+00   4.541250E+00   4.623052E+00   4.633862E+00   4.597862E+00   4.522478E+00   4.414437E+00   4.300093E+00   4.189054E+00   4.089276E+00
   3.927820E+00   3.860710E+00   3.788747E+00   3.723346E+00   3.643868E+00   3.575206E+00   3.507282E+00   3.460221E+00   3.412643E+00   3.347706E+00   3.262999E+00   3.164273E+00   3.053044E+00   2.956394E+00   2.865094E+00   2.791647E+00   2.733616E+00   2.716543E+00   2.735006E+00   2.798235E+00   2.881918E+00   2.997875E+00   3.128063E+00   3.293085E+00   3.480422E+00   3.681236E+00   3.901507E+00   4.138201E+00   4.358612E+00   4.559547E+00   4.716616E+00   4.837780E+00   4.929663E+00   4.955420E+00   4.887538E+00   4.750156E+00   4.529967E+00   4.227823E+00   3.908983E+00   3.604837E+00   3.351532E+00   3.145035E+00   2.971163E+00   2.837332E+00   2.728485E+00   2.642913E+00   2.593880E+00   2.572596E+00   2.599735E+00   2.666920E+00   2.775976E+00   2.913165E+00   3.051252E+00   3.165633E+00   3.227640E+00   3.263484E+00   3.280861E+00   3.300851E+00   3.350734E+00   3.445489E+00   3.576458E+00   3.732280E+00   3.894385E+00   4.002721E+00   4.042737E+00   3.995552E+00   3.872874E+00   3.711097E+00   3.517930E+00   3.313289E+00   3.125251E+00   2.946255E+00   2.803142E+00   2.694255E+00   2.638699E+00   2.633931E+00   2.659285E+00   2.716472E+00   2.789627E+00   2.847250E+00   2.889403E+00   2.890098E+00   2.852493E+00   2.789552E+00   2.706285E+00   2.613369E+00   2.526197E+00   2.464920E+00   2.451858E+00   2.497364E+00   2.601206E+00   2.760274E+00   2.955283E+00   3.155701E+00   3.334577E+00   3.460185E+00   3.530050E+00   3.550050E+00   3.521848E+00   3.436371E+00   3.299217E+00   3.143639E+00   2.984241E+00   2.847557E+00   2.743652E+00   2.675354E+00   2.636085E+00   2.606167E+00   2.594863E+00   2.592362E+00   2.609492E+00   2.639570E+00   2.691542E+00   2.751021E+00   2.813281E+00   2.871008E+00   2.921754E+00   2.981481E+00   3.061165E+00   3.170113E+00   3.314275E+00   3.483907E+00   3.680447E+00   3.873020E+00   4.037530E+00   4.144078E+00   4.186353E+00   4.177040E+00   4.164038E+00   4.130326E+00   4.092266E+00   4.017889E+00   3.917347E+00   3.791123E+00   3.647874E+00   3.508810E+00   3.404488E+00   3.357806E+00   3.388471E+00   3.479405E+00   3.631930E+00   3.853787E+00   4.107549E+00   4.400615E+00   4.726893E+00   5.081420E+00   5.440021E+00   5.796592E+00   6.091988E+00   6.274611E+00   6.310138E+00   6.157875E+00   5.832040E+00   5.429607E+00   4.998346E+00   4.558546E+00   4.133039E+00   3.731718E+00   3.385222E+00   3.080586E+00   2.821111E+00   2.606313E+00   2.437042E+00   2.311192E+00   2.234147E+00   2.206357E+00   2.235679E+00   2.315071E+00   2.456066E+00   2.644264E+00   2.873653E+00   3.128258E+00   3.389445E+00   3.644664E+00   3.861349E+00   4.030080E+00   4.142752E+00   4.209078E+00   4.220038E+00   4.215766E+00   4.167681E+00   4.130910E+00   4.083571E+00   4.053204E+00   4.027191E+00   4.034138E+00   4.065612E+00   4.130296E+00   4.237635E+00   4.388483E+00   4.553017E+00   4.687689E+00   4.764341E+00   4.776288E+00   4.729249E+00   4.654567E+00   4.558987E+00   4.432415E+00   4.291420E+00   4.145034E+00
   3.979249E+00   3.956115E+00   3.916135E+00   3.846205E+00   3.787305E+00   3.702324E+00   3.640432E+00   3.585246E+00   3.538542E+00   3.469798E+00   3.374568E+00   3.260672E+00   3.137022E+00   3.032610E+00   2.943047E+00   2.871726E+00   2.819770E+00   2.791023E+00   2.820314E+00   2.883784E+00   2.984719E+00   3.110705E+00   3.237317E+00   3.391798E+00   3.557117E+00   3.740358E+00   3.941692E+00   4.131016E+00   4.331368E+00   4.529365E+00   4.722695E+00   4.876855E+00   4.994677E+00   5.068941E+00   5.075521E+00   4.981286E+00   4.779932E+00   4.476422E+00   4.124654E+00   3.774247E+00   3.476755E+00   3.219738E+00   3.016602E+00   2.855419E+00   2.731804E+00   2.650873E+00   2.602333E+00   2.606472E+00   2.658903E+00   2.753622E+00   2.901403E+00   3.083044E+00   3.264071E+00   3.424696E+00   3.534993E+00   3.600056E+00   3.640184E+00   3.670248E+00   3.741633E+00   3.854864E+00   4.003160E+00   4.173783E+00   4.336043E+00   4.434775E+00   4.437898E+00   4.351516E+00   4.188909E+00   3.979989E+00   3.749599E+00   3.520342E+00   3.295624E+00   3.104445E+00   2.943742E+00   2.832608E+00   2.759798E+00   2.730225E+00   2.735198E+00   2.771695E+00   2.823674E+00   2.866518E+00   2.880015E+00   2.862301E+00   2.807958E+00   2.741232E+00   2.650603E+00   2.550095E+00   2.459334E+00   2.393236E+00   2.381469E+00   2.431673E+00   2.541983E+00   2.698339E+00   2.899842E+00   3.109647E+00   3.315539E+00   3.493482E+00   3.620090E+00   3.673439E+00   3.669991E+00   3.599018E+00   3.483439E+00   3.343580E+00   3.199975E+00   3.071790E+00   2.981890E+00   2.926019E+00   2.895846E+00   2.879551E+00   2.874134E+00   2.873430E+00   2.885675E+00   2.914700E+00   2.965699E+00   3.022930E+00   3.066788E+00   3.108943E+00   3.122751E+00   3.139659E+00   3.171269E+00   3.221861E+00   3.309349E+00   3.421848E+00   3.554318E+00   3.684067E+00   3.775443E+00   3.815109E+00   3.803336E+00   3.772083E+00   3.744570E+00   3.737113E+00   3.735736E+00   3.736139E+00   3.699069E+00   3.619933E+00   3.520870E+00   3.397777E+00   3.291291E+00   3.229123E+00   3.249171E+00   3.342995E+00   3.512254E+00   3.753198E+00   4.029939E+00   4.332257E+00   4.645228E+00   4.978066E+00   5.325189E+00   5.669804E+00   5.977727E+00   6.189614E+00   6.239353E+00   6.109953E+00   5.834330E+00   5.472323E+00   5.047006E+00   4.617123E+00   4.185051E+00   3.797864E+00   3.451106E+00   3.153080E+00   2.899329E+00   2.672921E+00   2.492174E+00   2.357051E+00   2.272522E+00   2.236393E+00   2.258070E+00   2.327258E+00   2.455626E+00   2.632205E+00   2.854243E+00   3.111325E+00   3.386168E+00   3.643245E+00   3.848819E+00   3.999866E+00   4.092032E+00   4.131372E+00   4.142265E+00   4.115773E+00   4.074126E+00   4.032028E+00   3.994945E+00   3.959875E+00   3.949509E+00   3.955052E+00   4.000588E+00   4.076064E+00   4.203004E+00   4.372295E+00   4.537217E+00   4.675685E+00   4.759194E+00   4.768257E+00   4.728073E+00   4.655862E+00   4.566790E+00   4.446477E+00   4.311236E+00   4.158987E+00
   4.043890E+00   4.084145E+00   4.071404E+00   4.037250E+00   3.960872E+00   3.885036E+00   3.813549E+00   3.759401E+00   3.692917E+00   3.604000E+00   3.479975E+00   3.350105E+00   3.221316E+00   3.114133E+00   3.027725E+00   2.968600E+00   2.913776E+00   2.901122E+00   2.924574E+00   2.989331E+00   3.088468E+00   3.214755E+00   3.342424E+00   3.479066E+00   3.627715E+00   3.797930E+00   3.966338E+00   4.148396E+00   4.342594E+00   4.552654E+00   4.757282E+00   4.955732E+00   5.106293E+00   5.218742E+00   5.245032E+00   5.181295E+00   5.010209E+00   4.737338E+00   4.381470E+00   4.004568E+00   3.652378E+00   3.364277E+00   3.127161E+00   2.945477E+00   2.819975E+00   2.736150E+00   2.707336E+00   2.717040E+00   2.787450E+00   2.909113E+00   3.080447E+00   3.272272E+00   3.458003E+00   3.628200E+00   3.747808E+00   3.826051E+00   3.874321E+00   3.941032E+00   4.036169E+00   4.175779E+00   4.366893E+00   4.566319E+00   4.749380E+00   4.856421E+00   4.847958E+00   4.724358E+00   4.530533E+00   4.301589E+00   4.057087E+00   3.805697E+00   3.577846E+00   3.378536E+00   3.201579E+00   3.065379E+00   2.967688E+00   2.905373E+00   2.885653E+00   2.880166E+00   2.895741E+00   2.904365E+00   2.899428E+00   2.858562E+00   2.797992E+00   2.723528E+00   2.642297E+00   2.554504E+00   2.475091E+00   2.429992E+00   2.430731E+00   2.496280E+00   2.612902E+00   2.781300E+00   2.975190E+00   3.192647E+00   3.411494E+00   3.607373E+00   3.762722E+00   3.837361E+00   3.842334E+00   3.784219E+00   3.672273E+00   3.546547E+00   3.415729E+00   3.298620E+00   3.212460E+00   3.164704E+00   3.149036E+00   3.143923E+00   3.148287E+00   3.160271E+00   3.179320E+00   3.208032E+00   3.260748E+00   3.311560E+00   3.341108E+00   3.346557E+00   3.325293E+00   3.288651E+00   3.259136E+00   3.245843E+00   3.260644E+00   3.298873E+00   3.355258E+00   3.410920E+00   3.443069E+00   3.444906E+00   3.415717E+00   3.382648E+00   3.375325E+00   3.390367E+00   3.444887E+00   3.502666E+00   3.535352E+00   3.518762E+00   3.461554E+00   3.369124E+00   3.283915E+00   3.227344E+00   3.242439E+00   3.321924E+00   3.490419E+00   3.741081E+00   4.033753E+00   4.338199E+00   4.635911E+00   4.931277E+00   5.239433E+00   5.556669E+00   5.846463E+00   6.059371E+00   6.143044E+00   6.062783E+00   5.839995E+00   5.501645E+00   5.102459E+00   4.675263E+00   4.269528E+00   3.885892E+00   3.559965E+00   3.277906E+00   3.028223E+00   2.793591E+00   2.600882E+00   2.452390E+00   2.352112E+00   2.309141E+00   2.314158E+00   2.382619E+00   2.499840E+00   2.669159E+00   2.872125E+00   3.122920E+00   3.385274E+00   3.627534E+00   3.814930E+00   3.943840E+00   4.011647E+00   4.035325E+00   4.031367E+00   3.989699E+00   3.960315E+00   3.940512E+00   3.914447E+00   3.892862E+00   3.875376E+00   3.878088E+00   3.913736E+00   3.978788E+00   4.088303E+00   4.229204E+00   4.381777E+00   4.500927E+00   4.581533E+00   4.594132E+00   4.575786E+00   4.527505E+00   4.442683E+00   4.360724E+00   4.255040E+00   4.139213E+00
   4.118098E+00   4.210650E+00   4.262511E+00   4.249805E+00   4.208261E+00   4.124888E+00   4.064909E+00   3.997110E+00   3.908978E+00   3.779357E+00   3.618535E+00   3.458804E+00   3.315235E+00   3.196641E+00   3.115703E+00   3.068244E+00   3.036294E+00   3.024609E+00   3.037785E+00   3.091394E+00   3.170927E+00   3.276685E+00   3.404078E+00   3.532527E+00   3.672995E+00   3.817184E+00   3.980844E+00   4.160462E+00   4.384428E+00   4.597426E+00   4.814928E+00   5.007082E+00   5.182722E+00   5.290544E+00   5.337085E+00   5.286288E+00   5.157141E+00   4.925900E+00   4.612319E+00   4.239985E+00   3.878092E+00   3.554770E+00   3.295575E+00   3.101583E+00   2.960210E+00   2.877614E+00   2.847284E+00   2.877004E+00   2.957996E+00   3.078521E+00   3.238395E+00   3.413827E+00   3.595475E+00   3.736379E+00   3.842689E+00   3.909928E+00   3.973369E+00   4.058115E+00   4.187650E+00   4.376534E+00   4.612026E+00   4.859377E+00   5.051696E+00   5.165063E+00   5.162293E+00   5.044448E+00   4.843097E+00   4.610440E+00   4.366031E+00   4.127603E+00   3.916666E+00   3.719914E+00   3.534608E+00   3.381624E+00   3.237892E+00   3.137589E+00   3.067520E+00   3.019511E+00   2.985962E+00   2.955104E+00   2.920313E+00   2.866748E+00   2.804124E+00   2.741698E+00   2.668940E+00   2.616242E+00   2.575561E+00   2.565407E+00   2.600762E+00   2.681310E+00   2.828354E+00   3.010141E+00   3.222485E+00   3.449455E+00   3.652979E+00   3.812402E+00   3.942550E+00   4.019943E+00   4.008617E+00   3.951927E+00   3.841302E+00   3.726123E+00   3.609967E+00   3.506320E+00   3.425838E+00   3.373480E+00   3.343035E+00   3.344246E+00   3.354802E+00   3.380453E+00   3.414034E+00   3.450199E+00   3.493116E+00   3.513971E+00   3.512118E+00   3.487070E+00   3.433850E+00   3.359457E+00   3.271374E+00   3.190978E+00   3.133748E+00   3.101315E+00   3.092285E+00   3.087171E+00   3.078192E+00   3.065087E+00   3.046754E+00   3.046935E+00   3.070095E+00   3.129148E+00   3.219759E+00   3.329584E+00   3.412961E+00   3.460310E+00   3.453494E+00   3.415217E+00   3.353982E+00   3.319050E+00   3.333190E+00   3.424392E+00   3.582769E+00   3.817443E+00   4.090345E+00   4.375510E+00   4.642035E+00   4.914403E+00   5.188468E+00   5.481199E+00   5.738685E+00   5.936402E+00   6.020547E+00   5.968999E+00   5.783101E+00   5.506546E+00   5.158288E+00   4.773891E+00   4.398674E+00   4.037103E+00   3.707803E+00   3.425241E+00   3.169280E+00   2.936297E+00   2.729620E+00   2.576807E+00   2.472875E+00   2.423096E+00   2.430878E+00   2.485557E+00   2.602009E+00   2.752189E+00   2.949034E+00   3.173080E+00   3.409235E+00   3.626984E+00   3.804105E+00   3.901109E+00   3.955251E+00   3.968483E+00   3.953106E+00   3.917458E+00   3.892743E+00   3.872453E+00   3.861986E+00   3.835976E+00   3.817830E+00   3.802342E+00   3.815779E+00   3.857337E+00   3.933973E+00   4.037811E+00   4.145256E+00   4.243957E+00   4.295422E+00   4.320737E+00   4.320786E+00   4.298204E+00   4.258300E+00   4.217179E+00   4.165391E+00   4.084803E+00