# LPF package for  MODFLOW-2005, generated by Flopy.
         0    -1E+30         0  
         0
         0
   1.000000E+00
         0
         0
INTERNAL               1 (200E15.6) -1 #hk layer 1                    
   3.962815E+00   3.935311E+00   3.904678E+00   3.862681E+00   3.833947E+00   3.813533E+00   3.802181E+00   3.789437E+00   3.787816E+00   3.761544E+00   3.732093E+00   3.689049E+00   3.641794E+00   3.585364E+00   3.527746E+00   3.488826E+00   3.471303E+00   3.475613E+00   3.487868E+00   3.514971E+00   3.555486E+00   3.610214E+00   3.676245E+00   3.769758E+00   3.856451E+00   3.942639E+00   4.024011E+00   4.102590E+00   4.173339E+00   4.228838E+00   4.263432E+00   4.278113E+00   4.262429E+00   4.208707E+00   4.144084E+00   4.061006E+00   3.983625E+00   3.902469E+00   3.837306E+00   3.780404E+00   3.734361E+00   3.705021E+00   3.677658E+00   3.641462E+00   3.612146E+00   3.596217E+00   3.597855E+00   3.596420E+00   3.597034E+00   3.587663E+00   3.565876E+00   3.538474E+00   3.502619E+00   3.460940E+00   3.425203E+00   3.380454E+00   3.348134E+00   3.330691E+00   3.342646E+00   3.384821E+00   3.437920E+00   3.508675E+00   3.589004E+00   3.667549E+00   3.724901E+00   3.774162E+00   3.803739E+00   3.823974E+00   3.825925E+00   3.805990E+00   3.768572E+00   3.724196E+00   3.683834E+00   3.658792E+00   3.654702E+00   3.647154E+00   3.655432E+00   3.651748E+00   3.644567E+00   3.635156E+00   3.635765E+00   3.623748E+00   3.611407E+00   3.599453E+00   3.583053E+00   3.572199E+00   3.569971E+00   3.582286E+00   3.598248E+00   3.649042E+00   3.714916E+00   3.790921E+00   3.863294E+00   3.918330E+00   3.938052E+00   3.934264E+00   3.911757E+00   3.868116E+00   3.820135E+00   3.755171E+00   3.688735E+00   3.614297E+00   3.538760E+00   3.483473E+00   3.436750E+00   3.398564E+00   3.375395E+00   3.354302E+00   3.352362E+00   3.340847E+00   3.328581E+00   3.308893E+00   3.299309E+00   3.304991E+00   3.313837E+00   3.343996E+00   3.403412E+00   3.481928E+00   3.577452E+00   3.681933E+00   3.773177E+00   3.873428E+00   3.963060E+00   4.047374E+00   4.127080E+00   4.192575E+00   4.268167E+00   4.325117E+00   4.356722E+00   4.372991E+00   4.360157E+00   4.335502E+00   4.308292E+00   4.267510E+00   4.212896E+00   4.168984E+00   4.110986E+00   4.072269E+00   4.050387E+00   4.051535E+00   4.074244E+00   4.106819E+00   4.158813E+00   4.213338E+00   4.279542E+00   4.349134E+00   4.431425E+00   4.525227E+00   4.590773E+00   4.617018E+00   4.595952E+00   4.545478E+00   4.458039E+00   4.371126E+00   4.269459E+00   4.164222E+00   4.064249E+00   3.962333E+00   3.866724E+00   3.760930E+00   3.673731E+00   3.573217E+00   3.493948E+00   3.440107E+00   3.401943E+00   3.385141E+00   3.389161E+00   3.415212E+00   3.461387E+00   3.544883E+00   3.647727E+00   3.756817E+00   3.870568E+00   3.969575E+00   4.043453E+00   4.094715E+00   4.129312E+00   4.160723E+00   4.187228E+00   4.202278E+00   4.222096E+00   4.238187E+00   4.251578E+00   4.250277E+00   4.238792E+00   4.202094E+00   4.153013E+00   4.089876E+00   4.032025E+00   3.993612E+00   3.975561E+00   3.977406E+00   3.985329E+00   4.000359E+00   4.005193E+00   4.010242E+00   4.009924E+00   3.991164E+00   3.983162E+00   3.979272E+00
   3.931134E+00   3.887815E+00   3.829910E+00   3.762747E+00   3.694703E+00   3.655683E+00   3.623689E+00   3.599911E+00   3.585637E+00   3.569210E+00   3.518315E+00   3.459047E+00   3.366354E+00   3.277701E+00   3.189094E+00   3.124382E+00   3.088145E+00   3.089481E+00   3.108898E+00   3.145958E+00   3.206945E+00   3.294816E+00   3.408872E+00   3.546168E+00   3.701301E+00   3.869404E+00   4.044197E+00   4.212885E+00   4.363840E+00   4.476755E+00   4.542673E+00   4.578439E+00   4.539371E+00   4.449929E+00   4.313812E+00   4.166928E+00   4.016902E+00   3.866454E+00   3.721242E+00   3.617236E+00   3.532076E+00   3.477569E+00   3.426609E+00   3.378133E+00   3.326899E+00   3.299382E+00   3.291391E+00   3.285518E+00   3.282844E+00   3.269469E+00   3.241947E+00   3.198106E+00   3.151937E+00   3.091610E+00   3.019206E+00   2.953015E+00   2.904738E+00   2.881373E+00   2.896894E+00   2.955893E+00   3.048339E+00   3.177495E+00   3.316505E+00   3.439429E+00   3.540931E+00   3.620240E+00   3.659796E+00   3.670866E+00   3.654483E+00   3.607719E+00   3.536750E+00   3.462994E+00   3.394783E+00   3.346558E+00   3.318205E+00   3.305702E+00   3.306745E+00   3.317256E+00   3.330753E+00   3.344672E+00   3.346195E+00   3.339693E+00   3.320313E+00   3.291578E+00   3.255569E+00   3.224134E+00   3.214297E+00   3.223273E+00   3.256960E+00   3.326766E+00   3.449595E+00   3.571635E+00   3.708101E+00   3.808181E+00   3.860885E+00   3.865891E+00   3.817459E+00   3.748124E+00   3.658853E+00   3.553087E+00   3.436075E+00   3.309251E+00   3.182744E+00   3.082003E+00   3.002713E+00   2.939533E+00   2.899012E+00   2.875584E+00   2.857870E+00   2.842654E+00   2.823157E+00   2.810549E+00   2.814550E+00   2.824051E+00   2.855803E+00   2.913300E+00   2.997026E+00   3.108454E+00   3.251820E+00   3.408311E+00   3.571080E+00   3.748647E+00   3.920081E+00   4.087042E+00   4.236407E+00   4.381863E+00   4.511726E+00   4.608136E+00   4.648700E+00   4.659140E+00   4.639151E+00   4.593630E+00   4.519082E+00   4.415603E+00   4.309495E+00   4.212440E+00   4.140039E+00   4.086653E+00   4.073742E+00   4.088611E+00   4.138998E+00   4.222861E+00   4.297540E+00   4.407163E+00   4.526160E+00   4.681337E+00   4.855028E+00   5.038356E+00   5.183086E+00   5.230872E+00   5.195879E+00   5.073092E+00   4.905639E+00   4.710863E+00   4.497820E+00   4.285076E+00   4.077620E+00   3.883926E+00   3.689826E+00   3.513453E+00   3.339389E+00   3.195173E+00   3.067261E+00   2.986334E+00   2.935848E+00   2.910971E+00   2.919174E+00   2.971690E+00   3.068337E+00   3.207990E+00   3.373967E+00   3.558179E+00   3.746489E+00   3.909621E+00   4.045563E+00   4.142182E+00   4.213161E+00   4.270544E+00   4.312895E+00   4.347742E+00   4.379005E+00   4.414364E+00   4.424685E+00   4.419904E+00   4.381776E+00   4.328482E+00   4.247606E+00   4.152926E+00   4.068352E+00   4.004920E+00   4.004039E+00   4.018934E+00   4.044946E+00   4.059664E+00   4.058063E+00   4.054829E+00   4.036876E+00   4.011747E+00   3.986692E+00   3.982304E+00
   3.911499E+00   3.831613E+00   3.749260E+00   3.665499E+00   3.598597E+00   3.527683E+00   3.482234E+00   3.448328E+00   3.426499E+00   3.389955E+00   3.342380E+00   3.261642E+00   3.174658E+00   3.070574E+00   2.974618E+00   2.897267E+00   2.853264E+00   2.845944E+00   2.866175E+00   2.912447E+00   2.976430E+00   3.079115E+00   3.215701E+00   3.387480E+00   3.576918E+00   3.793248E+00   4.037849E+00   4.276448E+00   4.495274E+00   4.657290E+00   4.768126E+00   4.801251E+00   4.762650E+00   4.652540E+00   4.500462E+00   4.292887E+00   4.082283E+00   3.863155E+00   3.679979E+00   3.528591E+00   3.415947E+00   3.325217E+00   3.259014E+00   3.194380E+00   3.126794E+00   3.063549E+00   3.038929E+00   3.013887E+00   3.011936E+00   3.010904E+00   3.004359E+00   2.979176E+00   2.953074E+00   2.897761E+00   2.834671E+00   2.772604E+00   2.717806E+00   2.691845E+00   2.709708E+00   2.779117E+00   2.893616E+00   3.038488E+00   3.196807E+00   3.347641E+00   3.465077E+00   3.536513E+00   3.565423E+00   3.554718E+00   3.505314E+00   3.429586E+00   3.323645E+00   3.222544E+00   3.129656E+00   3.062927E+00   3.020988E+00   3.000729E+00   3.008647E+00   3.033453E+00   3.074593E+00   3.111117E+00   3.131084E+00   3.131490E+00   3.116675E+00   3.074208E+00   3.034378E+00   2.993370E+00   2.965037E+00   2.957820E+00   2.984628E+00   3.066851E+00   3.196430E+00   3.362241E+00   3.523916E+00   3.667908E+00   3.738806E+00   3.748430E+00   3.707701E+00   3.629659E+00   3.533663E+00   3.403327E+00   3.255743E+00   3.101793E+00   2.953053E+00   2.817275E+00   2.714434E+00   2.633863E+00   2.576765E+00   2.543733E+00   2.525967E+00   2.512372E+00   2.502458E+00   2.501249E+00   2.520573E+00   2.552492E+00   2.595361E+00   2.671972E+00   2.769145E+00   2.892517E+00   3.056059E+00   3.236990E+00   3.429874E+00   3.652890E+00   3.878084E+00   4.097873E+00   4.299486E+00   4.472353E+00   4.633234E+00   4.738610E+00   4.800540E+00   4.799520E+00   4.754859E+00   4.666645E+00   4.541517E+00   4.403028E+00   4.262392E+00   4.144938E+00   4.047003E+00   4.002110E+00   3.997764E+00   4.042980E+00   4.128200E+00   4.227159E+00   4.359668E+00   4.515338E+00   4.711209E+00   4.935047E+00   5.205322E+00   5.455708E+00   5.643771E+00   5.717768E+00   5.675741E+00   5.513212E+00   5.266268E+00   4.981893E+00   4.678011E+00   4.378269E+00   4.085084E+00   3.801437E+00   3.529381E+00   3.281579E+00   3.065816E+00   2.875606E+00   2.743307E+00   2.652187E+00   2.600335E+00   2.586754E+00   2.616780E+00   2.692723E+00   2.815998E+00   2.983724E+00   3.191453E+00   3.408054E+00   3.631606E+00   3.835699E+00   4.015876E+00   4.145653E+00   4.243249E+00   4.309026E+00   4.361042E+00   4.399595E+00   4.422581E+00   4.430068E+00   4.436992E+00   4.415244E+00   4.373803E+00   4.306180E+00   4.231503E+00   4.167245E+00   4.107540E+00   4.083210E+00   4.095591E+00   4.140558E+00   4.191356E+00   4.206336E+00   4.196300E+00   4.158117E+00   4.116555E+00   4.076011E+00   4.039240E+00   4.009610E+00
   3.896444E+00   3.808174E+00   3.706804E+00   3.617291E+00   3.544239E+00   3.483521E+00   3.426524E+00   3.386406E+00   3.348616E+00   3.305032E+00   3.237728E+00   3.162126E+00   3.060461E+00   2.958665E+00   2.861072E+00   2.788186E+00   2.738026E+00   2.722107E+00   2.738871E+00   2.785549E+00   2.846979E+00   2.944184E+00   3.081176E+00   3.263763E+00   3.476279E+00   3.718093E+00   3.983479E+00   4.264752E+00   4.516550E+00   4.716360E+00   4.850389E+00   4.915740E+00   4.877766E+00   4.796875E+00   4.627229E+00   4.407688E+00   4.159462E+00   3.904355E+00   3.671182E+00   3.492079E+00   3.347539E+00   3.228772E+00   3.124408E+00   3.028114E+00   2.943529E+00   2.872834E+00   2.826929E+00   2.791220E+00   2.786414E+00   2.799934E+00   2.824793E+00   2.847790E+00   2.864072E+00   2.863312E+00   2.830050E+00   2.784695E+00   2.741479E+00   2.725959E+00   2.748718E+00   2.821390E+00   2.941006E+00   3.095347E+00   3.255941E+00   3.401153E+00   3.504222E+00   3.550831E+00   3.540666E+00   3.482805E+00   3.396607E+00   3.283361E+00   3.157654E+00   3.024649E+00   2.914282E+00   2.824795E+00   2.781164E+00   2.772000E+00   2.795213E+00   2.835707E+00   2.895516E+00   2.947386E+00   2.992099E+00   3.008129E+00   2.995892E+00   2.955187E+00   2.894239E+00   2.837040E+00   2.786809E+00   2.764404E+00   2.783996E+00   2.851938E+00   2.984884E+00   3.145481E+00   3.331544E+00   3.491967E+00   3.600801E+00   3.640350E+00   3.616362E+00   3.548478E+00   3.453518E+00   3.323462E+00   3.168952E+00   2.995644E+00   2.832737E+00   2.694777E+00   2.574038E+00   2.487994E+00   2.434136E+00   2.393741E+00   2.381156E+00   2.367141E+00   2.370753E+00   2.385312E+00   2.416031E+00   2.466277E+00   2.530084E+00   2.616368E+00   2.714542E+00   2.835680E+00   2.982023E+00   3.155087E+00   3.350302E+00   3.571399E+00   3.813448E+00   4.059210E+00   4.280740E+00   4.464238E+00   4.608852E+00   4.704054E+00   4.741555E+00   4.728937E+00   4.662176E+00   4.551599E+00   4.400083E+00   4.236172E+00   4.082457E+00   3.944757E+00   3.856607E+00   3.807482E+00   3.816492E+00   3.887856E+00   4.005380E+00   4.150233E+00   4.329438E+00   4.553855E+00   4.811686E+00   5.114847E+00   5.422651E+00   5.737771E+00   5.979348E+00   6.085426E+00   6.044577E+00   5.856526E+00   5.551909E+00   5.189280E+00   4.811030E+00   4.452668E+00   4.093333E+00   3.749216E+00   3.425617E+00   3.138982E+00   2.889757E+00   2.700967E+00   2.551033E+00   2.445429E+00   2.391772E+00   2.380477E+00   2.412936E+00   2.497673E+00   2.634117E+00   2.831208E+00   3.049911E+00   3.291824E+00   3.531759E+00   3.766301E+00   3.957822E+00   4.112845E+00   4.209042E+00   4.281256E+00   4.318821E+00   4.338964E+00   4.336942E+00   4.334454E+00   4.302547E+00   4.280445E+00   4.231032E+00   4.189064E+00   4.154873E+00   4.129407E+00   4.138489E+00   4.184997E+00   4.258661E+00   4.340783E+00   4.393903E+00   4.415541E+00   4.386019E+00   4.323298E+00   4.237022E+00   4.156050E+00   4.091990E+00   4.036548E+00
   3.901825E+00   3.809957E+00   3.713231E+00   3.630444E+00   3.558778E+00   3.493249E+00   3.438354E+00   3.386894E+00   3.350348E+00   3.289023E+00   3.216650E+00   3.121823E+00   3.023673E+00   2.922868E+00   2.831489E+00   2.753307E+00   2.701878E+00   2.678896E+00   2.699934E+00   2.742688E+00   2.817750E+00   2.926600E+00   3.056282E+00   3.230251E+00   3.438303E+00   3.675368E+00   3.932468E+00   4.187494E+00   4.435141E+00   4.641670E+00   4.792039E+00   4.872150E+00   4.908519E+00   4.864399E+00   4.746483E+00   4.553876E+00   4.323732E+00   4.030067E+00   3.758929E+00   3.508554E+00   3.313918E+00   3.156490E+00   3.022561E+00   2.903648E+00   2.799618E+00   2.721359E+00   2.671179E+00   2.639080E+00   2.636711E+00   2.670368E+00   2.738763E+00   2.822990E+00   2.910096E+00   2.960593E+00   2.976144E+00   2.960263E+00   2.945416E+00   2.944746E+00   2.982774E+00   3.057380E+00   3.184146E+00   3.341054E+00   3.498324E+00   3.626685E+00   3.702520E+00   3.704728E+00   3.642761E+00   3.534359E+00   3.393553E+00   3.237158E+00   3.073586E+00   2.923607E+00   2.787895E+00   2.690799E+00   2.641275E+00   2.635815E+00   2.664880E+00   2.728976E+00   2.799698E+00   2.865930E+00   2.917928E+00   2.931140E+00   2.906023E+00   2.851609E+00   2.781736E+00   2.705002E+00   2.636738E+00   2.599334E+00   2.599270E+00   2.653900E+00   2.769808E+00   2.935772E+00   3.119226E+00   3.298654E+00   3.442085E+00   3.518091E+00   3.534001E+00   3.508358E+00   3.444435E+00   3.340467E+00   3.192448E+00   3.012817E+00   2.849265E+00   2.706596E+00   2.596189E+00   2.518854E+00   2.464446E+00   2.428492E+00   2.404835E+00   2.407068E+00   2.422426E+00   2.448780E+00   2.486906E+00   2.553493E+00   2.622026E+00   2.698399E+00   2.789964E+00   2.883390E+00   3.000728E+00   3.141317E+00   3.320123E+00   3.524301E+00   3.753844E+00   3.991938E+00   4.188173E+00   4.355804E+00   4.461550E+00   4.499851E+00   4.505707E+00   4.485075E+00   4.419077E+00   4.309819E+00   4.154737E+00   4.001828E+00   3.840628E+00   3.702032E+00   3.601285E+00   3.566008E+00   3.585183E+00   3.674860E+00   3.811864E+00   4.004482E+00   4.233361E+00   4.506052E+00   4.817454E+00   5.152415E+00   5.490221E+00   5.837818E+00   6.113974E+00   6.269487E+00   6.251975E+00   6.082628E+00   5.759875E+00   5.356152E+00   4.928646E+00   4.505433E+00   4.099728E+00   3.721022E+00   3.369220E+00   3.066885E+00   2.811590E+00   2.601493E+00   2.445860E+00   2.332657E+00   2.270933E+00   2.255108E+00   2.288428E+00   2.376354E+00   2.523427E+00   2.715413E+00   2.944811E+00   3.190720E+00   3.443058E+00   3.688690E+00   3.912982E+00   4.079489E+00   4.192253E+00   4.246079E+00   4.278818E+00   4.267776E+00   4.247252E+00   4.206032E+00   4.172061E+00   4.134664E+00   4.107536E+00   4.080852E+00   4.088143E+00   4.122440E+00   4.193326E+00   4.300811E+00   4.423542E+00   4.541066E+00   4.622926E+00   4.633795E+00   4.597846E+00   4.522506E+00   4.414492E+00   4.300156E+00   4.189109E+00   4.089309E+00
   3.927769E+00   3.860612E+00   3.788612E+00   3.723181E+00   3.643692E+00   3.575032E+00   3.507128E+00   3.460095E+00   3.412552E+00   3.347647E+00   3.262958E+00   3.164229E+00   3.052981E+00   2.956299E+00   2.864961E+00   2.791478E+00   2.733418E+00   2.716327E+00   2.734784E+00   2.798022E+00   2.881724E+00   2.997705E+00   3.127917E+00   3.292949E+00   3.480280E+00   3.681067E+00   3.901283E+00   4.137886E+00   4.358178E+00   4.558968E+00   4.715876E+00   4.836884E+00   4.928630E+00   4.954295E+00   4.886372E+00   4.748998E+00   4.528868E+00   4.226827E+00   3.908103E+00   3.604078E+00   3.350888E+00   3.144496E+00   2.970725E+00   2.836988E+00   2.728230E+00   2.642740E+00   2.593789E+00   2.572580E+00   2.599798E+00   2.667064E+00   2.776205E+00   2.913475E+00   3.051624E+00   3.166043E+00   3.228048E+00   3.263853E+00   3.281160E+00   3.301057E+00   3.350830E+00   3.445466E+00   3.576312E+00   3.732016E+00   3.894006E+00   4.002245E+00   4.042190E+00   3.994965E+00   3.872285E+00   3.710537E+00   3.517422E+00   3.312850E+00   3.124876E+00   2.945937E+00   2.802873E+00   2.694021E+00   2.638493E+00   2.633745E+00   2.659119E+00   2.716328E+00   2.789512E+00   2.847180E+00   2.889395E+00   2.890167E+00   2.852654E+00   2.789808E+00   2.706636E+00   2.613804E+00   2.526706E+00   2.465486E+00   2.452468E+00   2.498008E+00   2.601868E+00   2.760937E+00   2.955926E+00   3.156301E+00   3.335112E+00   3.460641E+00   3.530420E+00   3.550340E+00   3.522069E+00   3.436538E+00   3.299342E+00   3.143737E+00   2.984326E+00   2.847640E+00   2.743738E+00   2.675443E+00   2.636180E+00   2.606264E+00   2.594963E+00   2.592465E+00   2.609597E+00   2.639671E+00   2.691629E+00   2.751080E+00   2.813293E+00   2.870962E+00   2.921628E+00   2.981265E+00   3.060847E+00   3.169683E+00   3.313734E+00   3.483261E+00   3.679711E+00   3.872225E+00   4.036716E+00   4.143291E+00   4.185643E+00   4.176444E+00   4.163578E+00   4.130022E+00   4.092123E+00   4.017909E+00   3.917519E+00   3.791427E+00   3.648281E+00   3.509288E+00   3.405016E+00   3.358372E+00   3.389071E+00   3.480041E+00   3.632604E+00   3.854500E+00   4.108293E+00   4.401390E+00   4.727690E+00   5.082244E+00   5.440873E+00   5.797485E+00   6.092926E+00   6.275601E+00   6.311181E+00   6.158958E+00   5.833139E+00   5.430703E+00   4.999425E+00   4.559592E+00   4.134036E+00   3.732655E+00   3.386088E+00   3.081378E+00   2.821822E+00   2.606938E+00   2.437581E+00   2.311642E+00   2.234507E+00   2.206622E+00   2.235846E+00   2.315132E+00   2.456012E+00   2.644088E+00   2.873346E+00   3.127822E+00   3.388895E+00   3.644024E+00   3.860660E+00   4.029377E+00   4.142077E+00   4.208454E+00   4.219477E+00   4.215268E+00   4.167241E+00   4.130513E+00   4.083203E+00   4.052853E+00   4.026850E+00   4.033800E+00   4.065275E+00   4.129967E+00   4.237318E+00   4.388179E+00   4.552736E+00   4.687442E+00   4.764140E+00   4.776141E+00   4.729156E+00   4.654522E+00   4.558980E+00   4.432429E+00   4.291442E+00   4.145049E+00
   3.979232E+00   3.956081E+00   3.916089E+00   3.846148E+00   3.787247E+00   3.702275E+00   3.640403E+00   3.585243E+00   3.538562E+00   3.469836E+00   3.374603E+00   3.260687E+00   3.136999E+00   3.032538E+00   2.942922E+00   2.871551E+00   2.819552E+00   2.790779E+00   2.820051E+00   2.883516E+00   2.984457E+00   3.110454E+00   3.237075E+00   3.391550E+00   3.556850E+00   3.740045E+00   3.941306E+00   4.130533E+00   4.330757E+00   4.528605E+00   4.721776E+00   4.875787E+00   4.993484E+00   5.067654E+00   5.074198E+00   4.979983E+00   4.778707E+00   4.475317E+00   4.123689E+00   3.773422E+00   3.476057E+00   3.219154E+00   3.016119E+00   2.855025E+00   2.731492E+00   2.650637E+00   2.602167E+00   2.606378E+00   2.658883E+00   2.753681E+00   2.901543E+00   3.083264E+00   3.264357E+00   3.425022E+00   3.535319E+00   3.600342E+00   3.640395E+00   3.670353E+00   3.741615E+00   3.854708E+00   4.002864E+00   4.173352E+00   4.335494E+00   4.434134E+00   4.437202E+00   4.350805E+00   4.188230E+00   3.979376E+00   3.749071E+00   3.519904E+00   3.295271E+00   3.104165E+00   2.943519E+00   2.832428E+00   2.759651E+00   2.730106E+00   2.735103E+00   2.771628E+00   2.823643E+00   2.866537E+00   2.880095E+00   2.862458E+00   2.808198E+00   2.741557E+00   2.651009E+00   2.550573E+00   2.459871E+00   2.393817E+00   2.382085E+00   2.432314E+00   2.542637E+00   2.698989E+00   2.900470E+00   3.110231E+00   3.316062E+00   3.493930E+00   3.620462E+00   3.673730E+00   3.670209E+00   3.599174E+00   3.483547E+00   3.343652E+00   3.200025E+00   3.071827E+00   2.981919E+00   2.926043E+00   2.895866E+00   2.879565E+00   2.874145E+00   2.873440E+00   2.885686E+00   2.914706E+00   2.965689E+00   3.022889E+00   3.066700E+00   3.108791E+00   3.122519E+00   3.139338E+00   3.170854E+00   3.221350E+00   3.308743E+00   3.421158E+00   3.553560E+00   3.683276E+00   3.774661E+00   3.814385E+00   3.802707E+00   3.771573E+00   3.744200E+00   3.736890E+00   3.735667E+00   3.736228E+00   3.699306E+00   3.620301E+00   3.521344E+00   3.398322E+00   3.291888E+00   3.229755E+00   3.249839E+00   3.343700E+00   3.513001E+00   3.753994E+00   4.030777E+00   4.333131E+00   4.646137E+00   4.979007E+00   5.326165E+00   5.670818E+00   5.978786E+00   6.190718E+00   6.240496E+00   6.111119E+00   5.835496E+00   5.473467E+00   5.048109E+00   4.618170E+00   4.186033E+00   3.798775E+00   3.451942E+00   3.153838E+00   2.900012E+00   2.673520E+00   2.492689E+00   2.357480E+00   2.272863E+00   2.236646E+00   2.258231E+00   2.327322E+00   2.455585E+00   2.632053E+00   2.853971E+00   3.110929E+00   3.385660E+00   3.642651E+00   3.848181E+00   3.999221E+00   4.091416E+00   4.130816E+00   4.141778E+00   4.115355E+00   4.073766E+00   4.031713E+00   3.994660E+00   3.959607E+00   3.949250E+00   3.954793E+00   4.000323E+00   4.075790E+00   4.202722E+00   4.372004E+00   4.536931E+00   4.675413E+00   4.758947E+00   4.768047E+00   4.727910E+00   4.655749E+00   4.566718E+00   4.446437E+00   4.311218E+00   4.158982E+00
   4.043913E+00   4.084191E+00   4.071467E+00   4.037333E+00   3.960970E+00   3.885155E+00   3.813683E+00   3.759548E+00   3.693070E+00   3.604149E+00   3.480100E+00   3.350187E+00   3.221341E+00   3.114093E+00   3.027617E+00   2.968425E+00   2.913547E+00   2.900846E+00   2.924267E+00   2.989002E+00   3.088128E+00   3.214405E+00   3.342062E+00   3.478682E+00   3.627294E+00   3.797447E+00   3.965775E+00   4.147726E+00   4.341799E+00   4.551714E+00   4.756196E+00   4.954506E+00   5.104960E+00   5.217331E+00   5.243603E+00   5.179905E+00   5.008902E+00   4.736164E+00   4.380448E+00   4.003701E+00   3.651649E+00   3.363663E+00   3.126646E+00   2.945045E+00   2.819614E+00   2.735853E+00   2.707098E+00   2.716863E+00   2.787339E+00   2.909074E+00   3.080485E+00   3.272386E+00   3.458180E+00   3.628412E+00   3.748018E+00   3.826219E+00   3.874410E+00   3.941014E+00   4.036023E+00   4.175488E+00   4.366457E+00   4.565743E+00   4.748687E+00   4.855651E+00   4.847157E+00   4.723582E+00   4.529822E+00   4.300973E+00   4.056578E+00   3.805298E+00   3.577543E+00   3.378316E+00   3.201428E+00   3.065279E+00   2.967629E+00   2.905345E+00   2.885653E+00   2.880198E+00   2.895809E+00   2.904477E+00   2.899597E+00   2.858794E+00   2.798298E+00   2.723905E+00   2.642745E+00   2.555010E+00   2.475648E+00   2.430585E+00   2.431350E+00   2.496919E+00   2.613550E+00   2.781943E+00   2.975808E+00   3.193222E+00   3.412009E+00   3.607817E+00   3.763093E+00   3.837652E+00   3.842547E+00   3.784367E+00   3.672363E+00   3.546587E+00   3.415734E+00   3.298597E+00   3.212417E+00   3.164639E+00   3.148954E+00   3.143826E+00   3.148175E+00   3.160150E+00   3.179193E+00   3.207896E+00   3.260590E+00   3.311365E+00   3.340862E+00   3.346248E+00   3.324907E+00   3.288188E+00   3.258596E+00   3.245233E+00   3.259969E+00   3.298146E+00   3.354500E+00   3.410162E+00   3.442346E+00   3.444257E+00   3.415171E+00   3.382224E+00   3.375031E+00   3.390211E+00   3.444873E+00   3.502800E+00   3.535629E+00   3.519168E+00   3.462067E+00   3.369716E+00   3.284561E+00   3.228030E+00   3.243161E+00   3.322682E+00   3.491222E+00   3.741940E+00   4.034665E+00   4.339156E+00   4.636905E+00   4.932304E+00   5.240489E+00   5.557758E+00   5.847585E+00   6.060527E+00   6.144212E+00   6.063959E+00   5.841152E+00   5.502762E+00   5.103515E+00   4.676248E+00   4.270437E+00   3.886722E+00   3.560715E+00   3.278584E+00   3.028827E+00   2.794118E+00   2.601333E+00   2.452762E+00   2.352408E+00   2.309361E+00   2.314299E+00   2.382677E+00   2.499808E+00   2.669030E+00   2.871892E+00   3.122580E+00   3.384831E+00   3.627014E+00   3.814368E+00   3.943271E+00   4.011108E+00   4.034839E+00   4.030949E+00   3.989347E+00   3.960019E+00   3.940259E+00   3.914226E+00   3.892663E+00   3.875189E+00   3.877902E+00   3.913537E+00   3.978572E+00   4.088067E+00   4.228945E+00   4.381504E+00   4.500653E+00   4.581270E+00   4.593892E+00   4.575580E+00   4.527341E+00   4.442559E+00   4.360637E+00   4.254985E+00   4.139187E+00
   4.118159E+00   4.210775E+00   4.262693E+00   4.250033E+00   4.208528E+00   4.125181E+00   4.065217E+00   3.997421E+00   3.909274E+00   3.779624E+00   3.618751E+00   3.458957E+00   3.315311E+00   3.196642E+00   3.115622E+00   3.068086E+00   3.036061E+00   3.024316E+00   3.037441E+00   3.091013E+00   3.170516E+00   3.276247E+00   3.403606E+00   3.532016E+00   3.672430E+00   3.816546E+00   3.980116E+00   4.159626E+00   4.383461E+00   4.596330E+00   4.813704E+00   5.005752E+00   5.181312E+00   5.289096E+00   5.335640E+00   5.284900E+00   5.155849E+00   4.924734E+00   4.611300E+00   4.239121E+00   3.877365E+00   3.554160E+00   3.295056E+00   3.101134E+00   2.959821E+00   2.877274E+00   2.846991E+00   2.876760E+00   2.957805E+00   3.078392E+00   3.238333E+00   3.413832E+00   3.595535E+00   3.736468E+00   3.842774E+00   3.909973E+00   3.973342E+00   4.057988E+00   4.187405E+00   4.376156E+00   4.611509E+00   4.858735E+00   5.050954E+00   5.164263E+00   5.161491E+00   5.043693E+00   4.842432E+00   4.609885E+00   4.365598E+00   4.127285E+00   3.916445E+00   3.719781E+00   3.534545E+00   3.381618E+00   3.237930E+00   3.137663E+00   3.067622E+00   3.019642E+00   2.986121E+00   2.955297E+00   2.920550E+00   2.867035E+00   2.804470E+00   2.742104E+00   2.669402E+00   2.616759E+00   2.576119E+00   2.565998E+00   2.601380E+00   2.681943E+00   2.828997E+00   3.010782E+00   3.223105E+00   3.450033E+00   3.653500E+00   3.812855E+00   3.942931E+00   4.020247E+00   4.008842E+00   3.952077E+00   3.841383E+00   3.726138E+00   3.609929E+00   3.506239E+00   3.425720E+00   3.373328E+00   3.342852E+00   3.344038E+00   3.354572E+00   3.380203E+00   3.413765E+00   3.449908E+00   3.492795E+00   3.513602E+00   3.511695E+00   3.486581E+00   3.433292E+00   3.358837E+00   3.270703E+00   3.190271E+00   3.133013E+00   3.100567E+00   3.091541E+00   3.086455E+00   3.077533E+00   3.064509E+00   3.046277E+00   3.046570E+00   3.069849E+00   3.129026E+00   3.219769E+00   3.329734E+00   3.413248E+00   3.460723E+00   3.454020E+00   3.415830E+00   3.354653E+00   3.319768E+00   3.333950E+00   3.425195E+00   3.583618E+00   3.818341E+00   4.091297E+00   4.376503E+00   4.643068E+00   4.915466E+00   5.189559E+00   5.482316E+00   5.739823E+00   5.937553E+00   6.021696E+00   5.970121E+00   5.784189E+00   5.507581E+00   5.159258E+00   4.774783E+00   4.399478E+00   4.037817E+00   3.708434E+00   3.425798E+00   3.169766E+00   2.936716E+00   2.729975E+00   2.577101E+00   2.473109E+00   2.423270E+00   2.430992E+00   2.485606E+00   2.601987E+00   2.752091E+00   2.948850E+00   3.172807E+00   3.408877E+00   3.626553E+00   3.803631E+00   3.900628E+00   3.954789E+00   3.968064E+00   3.952738E+00   3.917148E+00   3.892484E+00   3.872234E+00   3.861799E+00   3.835809E+00   3.817674E+00   3.802185E+00   3.815607E+00   3.857146E+00   3.933752E+00   4.037559E+00   4.144980E+00   4.243668E+00   4.295135E+00   4.320468E+00   4.320543E+00   4.297997E+00   4.258132E+00   4.217054E+00   4.165309E+00   4.084765E+00