# LPF package for  MODFLOW-2005, generated by Flopy.
         0    -1E+30         0  
         0
         0
   1.000000E+00
         0
         0
INTERNAL               1 (200E15.6) -1 #hk layer 1                    
   3.962791E+00   3.935264E+00   3.904608E+00   3.862591E+00   3.833846E+00   3.813424E+00   3.802072E+00   3.789330E+00   3.787712E+00   3.761446E+00   3.732008E+00   3.688976E+00   3.641736E+00   3.585320E+00   3.527713E+00   3.488797E+00   3.471275E+00   3.475584E+00   3.487837E+00   3.514935E+00   3.555449E+00   3.610177E+00   3.676205E+00   3.769711E+00   3.856392E+00   3.942568E+00   4.023931E+00   4.102504E+00   4.173250E+00   4.228751E+00   4.263346E+00   4.278028E+00   4.262345E+00   4.208625E+00   4.144006E+00   4.060935E+00   3.983562E+00   3.902415E+00   3.837262E+00   3.780369E+00   3.734341E+00   3.705015E+00   3.677664E+00   3.641480E+00   3.612172E+00   3.596247E+00   3.597885E+00   3.596444E+00   3.597051E+00   3.587667E+00   3.565869E+00   3.538457E+00   3.502595E+00   3.460910E+00   3.425171E+00   3.380424E+00   3.348111E+00   3.330679E+00   3.342649E+00   3.384837E+00   3.437948E+00   3.508716E+00   3.589060E+00   3.667620E+00   3.724990E+00   3.774263E+00   3.803849E+00   3.824088E+00   3.826041E+00   3.806100E+00   3.768669E+00   3.724275E+00   3.683893E+00   3.658830E+00   3.654723E+00   3.647156E+00   3.655421E+00   3.651727E+00   3.644534E+00   3.635109E+00   3.635702E+00   3.623673E+00   3.611321E+00   3.599357E+00   3.582948E+00   3.572086E+00   3.569855E+00   3.582171E+00   3.598134E+00   3.648929E+00   3.714803E+00   3.790810E+00   3.863189E+00   3.918232E+00   3.937963E+00   3.934180E+00   3.911679E+00   3.868047E+00   3.820079E+00   3.755130E+00   3.688708E+00   3.614278E+00   3.538744E+00   3.483455E+00   3.436730E+00   3.398542E+00   3.375374E+00   3.354280E+00   3.352337E+00   3.340817E+00   3.328548E+00   3.308857E+00   3.299270E+00   3.304948E+00   3.313788E+00   3.343941E+00   3.403350E+00   3.481861E+00   3.577380E+00   3.681857E+00   3.773095E+00   3.873337E+00   3.962960E+00   4.047269E+00   4.126975E+00   4.192475E+00   4.268075E+00   4.325035E+00   4.356650E+00   4.372925E+00   4.360100E+00   4.335454E+00   4.308250E+00   4.267473E+00   4.212862E+00   4.168952E+00   4.110957E+00   4.072242E+00   4.050363E+00   4.051510E+00   4.074217E+00   4.106788E+00   4.158779E+00   4.213303E+00   4.279507E+00   4.349097E+00   4.431383E+00   4.525184E+00   4.590726E+00   4.616966E+00   4.595889E+00   4.545397E+00   4.457938E+00   4.371009E+00   4.269331E+00   4.164085E+00   4.064106E+00   3.962186E+00   3.866575E+00   3.760780E+00   3.673581E+00   3.573071E+00   3.493807E+00   3.439972E+00   3.401815E+00   3.385020E+00   3.389047E+00   3.415106E+00   3.461291E+00   3.544795E+00   3.647646E+00   3.756747E+00   3.870513E+00   3.969540E+00   4.043437E+00   4.094718E+00   4.129333E+00   4.160758E+00   4.187280E+00   4.202346E+00   4.222178E+00   4.238283E+00   4.251682E+00   4.250388E+00   4.238908E+00   4.202214E+00   4.153138E+00   4.090002E+00   4.032152E+00   3.993740E+00   3.975693E+00   3.977540E+00   3.985462E+00   4.000488E+00   4.005315E+00   4.010355E+00   4.010025E+00   3.991244E+00   3.983218E+00   3.979301E+00
   3.931089E+00   3.887724E+00   3.829777E+00   3.762582E+00   3.694521E+00   3.655495E+00   3.623502E+00   3.599731E+00   3.585467E+00   3.569053E+00   3.518178E+00   3.458934E+00   3.366267E+00   3.277638E+00   3.189047E+00   3.124341E+00   3.088107E+00   3.089444E+00   3.108858E+00   3.145915E+00   3.206898E+00   3.294766E+00   3.408814E+00   3.546095E+00   3.701207E+00   3.869292E+00   4.044066E+00   4.212741E+00   4.363691E+00   4.476609E+00   4.542534E+00   4.578303E+00   4.539239E+00   4.449802E+00   4.313692E+00   4.166817E+00   4.016801E+00   3.866363E+00   3.721166E+00   3.617177E+00   3.532043E+00   3.477564E+00   3.426630E+00   3.378175E+00   3.326956E+00   3.299441E+00   3.291447E+00   3.285562E+00   3.282874E+00   3.269480E+00   3.241940E+00   3.198086E+00   3.151905E+00   3.091570E+00   3.019163E+00   2.952974E+00   2.904704E+00   2.881353E+00   2.896891E+00   2.955911E+00   3.048378E+00   3.177557E+00   3.316593E+00   3.439544E+00   3.541072E+00   3.620404E+00   3.659974E+00   3.671052E+00   3.654670E+00   3.607897E+00   3.536909E+00   3.463122E+00   3.394878E+00   3.346616E+00   3.318229E+00   3.305698E+00   3.306719E+00   3.317210E+00   3.330688E+00   3.344583E+00   3.346084E+00   3.339559E+00   3.320160E+00   3.291404E+00   3.255379E+00   3.223933E+00   3.214088E+00   3.223061E+00   3.256747E+00   3.326553E+00   3.449380E+00   3.571422E+00   3.707896E+00   3.807987E+00   3.860707E+00   3.865728E+00   3.817316E+00   3.748000E+00   3.658756E+00   3.553015E+00   3.436026E+00   3.309215E+00   3.182714E+00   3.081974E+00   3.002680E+00   2.939497E+00   2.898973E+00   2.875542E+00   2.857822E+00   2.842602E+00   2.823101E+00   2.810490E+00   2.814487E+00   2.823982E+00   2.855725E+00   2.913212E+00   2.996927E+00   3.108341E+00   3.251692E+00   3.408170E+00   3.570923E+00   3.748474E+00   3.919895E+00   4.086843E+00   4.236207E+00   4.381665E+00   4.511535E+00   4.607956E+00   4.648539E+00   4.658998E+00   4.639031E+00   4.593534E+00   4.519004E+00   4.415539E+00   4.309441E+00   4.212391E+00   4.139994E+00   4.086609E+00   4.073700E+00   4.088565E+00   4.138941E+00   4.222792E+00   4.297467E+00   4.407087E+00   4.526079E+00   4.681252E+00   4.854936E+00   5.038249E+00   5.182964E+00   5.230729E+00   5.195715E+00   5.072898E+00   4.905413E+00   4.710611E+00   4.497550E+00   4.284795E+00   4.077333E+00   3.883638E+00   3.689540E+00   3.513170E+00   3.339117E+00   3.194911E+00   3.067012E+00   2.986097E+00   2.935625E+00   2.910762E+00   2.918982E+00   2.971514E+00   3.068177E+00   3.207842E+00   3.373834E+00   3.558065E+00   3.746403E+00   3.909570E+00   4.045548E+00   4.142199E+00   4.213209E+00   4.270619E+00   4.312998E+00   4.347877E+00   4.379169E+00   4.414557E+00   4.424895E+00   4.420127E+00   4.382011E+00   4.328727E+00   4.247855E+00   4.153176E+00   4.068602E+00   4.005170E+00   4.004293E+00   4.019192E+00   4.045201E+00   4.059913E+00   4.058299E+00   4.055050E+00   4.037070E+00   4.011902E+00   3.986798E+00   3.982358E+00
   3.911430E+00   3.831479E+00   3.749075E+00   3.665281E+00   3.598362E+00   3.527443E+00   3.482000E+00   3.448105E+00   3.426292E+00   3.389770E+00   3.342222E+00   3.261515E+00   3.174564E+00   3.070509E+00   2.974575E+00   2.897240E+00   2.853242E+00   2.845923E+00   2.866151E+00   2.912418E+00   2.976394E+00   3.079071E+00   3.215642E+00   3.387401E+00   3.576815E+00   3.793119E+00   4.037697E+00   4.276278E+00   4.495099E+00   4.657117E+00   4.767960E+00   4.801095E+00   4.762496E+00   4.652391E+00   4.500320E+00   4.292758E+00   4.082167E+00   3.863051E+00   3.679892E+00   3.528530E+00   3.415919E+00   3.325222E+00   3.259050E+00   3.194438E+00   3.126866E+00   3.063624E+00   3.038999E+00   3.013944E+00   3.011975E+00   3.010922E+00   3.004354E+00   2.979152E+00   2.953037E+00   2.897714E+00   2.834623E+00   2.772558E+00   2.717769E+00   2.691822E+00   2.709701E+00   2.779130E+00   2.893655E+00   3.038556E+00   3.196907E+00   3.347773E+00   3.465239E+00   3.536700E+00   3.565624E+00   3.554926E+00   3.505517E+00   3.429777E+00   3.323814E+00   3.222680E+00   3.129752E+00   3.062984E+00   3.021006E+00   3.000716E+00   3.008606E+00   3.033390E+00   3.074503E+00   3.110996E+00   3.130934E+00   3.131310E+00   3.116467E+00   3.073972E+00   3.034122E+00   2.993099E+00   2.964756E+00   2.957534E+00   2.984339E+00   3.066561E+00   3.196139E+00   3.361952E+00   3.523634E+00   3.667639E+00   3.738562E+00   3.748216E+00   3.707514E+00   3.629499E+00   3.533533E+00   3.403230E+00   3.255670E+00   3.101740E+00   2.953012E+00   2.817236E+00   2.714390E+00   2.633815E+00   2.576711E+00   2.543673E+00   2.525901E+00   2.512301E+00   2.502384E+00   2.501171E+00   2.520491E+00   2.552401E+00   2.595260E+00   2.671857E+00   2.769012E+00   2.892365E+00   3.055883E+00   3.236792E+00   3.429654E+00   3.652644E+00   3.877813E+00   4.097587E+00   4.299193E+00   4.472062E+00   4.632948E+00   4.738339E+00   4.800298E+00   4.799311E+00   4.754685E+00   4.666501E+00   4.541397E+00   4.402927E+00   4.262305E+00   4.144861E+00   4.046929E+00   4.002035E+00   3.997686E+00   4.042891E+00   4.128093E+00   4.227042E+00   4.359544E+00   4.515210E+00   4.711073E+00   4.934907E+00   5.205169E+00   5.455533E+00   5.643567E+00   5.717528E+00   5.675457E+00   5.512883E+00   5.265900E+00   4.981496E+00   4.677598E+00   4.377848E+00   4.084663E+00   3.801019E+00   3.528976E+00   3.281192E+00   3.065450E+00   2.875262E+00   2.742980E+00   2.651878E+00   2.600047E+00   2.586488E+00   2.616535E+00   2.692500E+00   2.815796E+00   2.983544E+00   3.191295E+00   3.407925E+00   3.631516E+00   3.835658E+00   4.015888E+00   4.145709E+00   4.243348E+00   4.309164E+00   4.361221E+00   4.399816E+00   4.422840E+00   4.430361E+00   4.437308E+00   4.415578E+00   4.374151E+00   4.306536E+00   4.231866E+00   4.167613E+00   4.107912E+00   4.083585E+00   4.095967E+00   4.140936E+00   4.191728E+00   4.206696E+00   4.196640E+00   4.158430E+00   4.116827E+00   4.076228E+00   4.039391E+00   4.009687E+00
   3.896359E+00   3.808014E+00   3.706587E+00   3.617041E+00   3.543972E+00   3.483254E+00   3.426264E+00   3.386164E+00   3.348396E+00   3.304843E+00   3.237574E+00   3.162009E+00   3.060380E+00   2.958616E+00   2.861047E+00   2.788178E+00   2.738029E+00   2.722114E+00   2.738876E+00   2.785547E+00   2.846967E+00   2.944157E+00   3.081129E+00   3.263691E+00   3.476180E+00   3.717968E+00   3.983332E+00   4.264587E+00   4.516376E+00   4.716185E+00   4.850213E+00   4.915569E+00   4.877600E+00   4.796715E+00   4.627079E+00   4.407556E+00   4.159349E+00   3.904262E+00   3.671113E+00   3.492037E+00   3.347531E+00   3.228796E+00   3.124457E+00   3.028181E+00   2.943608E+00   2.872914E+00   2.827002E+00   2.791279E+00   2.786456E+00   2.799954E+00   2.824786E+00   2.847761E+00   2.864024E+00   2.863256E+00   2.829993E+00   2.784643E+00   2.741438E+00   2.725931E+00   2.748707E+00   2.821398E+00   2.941041E+00   3.095413E+00   3.256040E+00   3.401284E+00   3.504381E+00   3.551008E+00   3.540855E+00   3.482993E+00   3.396784E+00   3.283522E+00   3.157792E+00   3.024754E+00   2.914352E+00   2.824829E+00   2.781162E+00   2.771967E+00   2.795152E+00   2.835623E+00   2.895403E+00   2.947243E+00   2.991921E+00   3.007916E+00   2.995643E+00   2.954909E+00   2.893940E+00   2.836725E+00   2.786484E+00   2.764073E+00   2.783663E+00   2.851605E+00   2.984554E+00   3.145156E+00   3.331226E+00   3.491665E+00   3.600525E+00   3.640107E+00   3.616153E+00   3.548301E+00   3.453375E+00   3.323348E+00   3.168863E+00   2.995573E+00   2.832676E+00   2.694720E+00   2.573978E+00   2.487927E+00   2.434061E+00   2.393661E+00   2.381070E+00   2.367052E+00   2.370660E+00   2.385215E+00   2.415929E+00   2.466163E+00   2.529955E+00   2.616218E+00   2.714370E+00   2.835483E+00   2.981801E+00   3.154835E+00   3.350023E+00   3.571084E+00   3.813102E+00   4.058843E+00   4.280369E+00   4.463872E+00   4.608498E+00   4.703719E+00   4.741251E+00   4.728673E+00   4.661952E+00   4.551407E+00   4.399913E+00   4.236020E+00   4.082321E+00   3.944635E+00   3.856488E+00   3.807362E+00   3.816361E+00   3.887712E+00   4.005215E+00   4.150050E+00   4.329244E+00   4.553652E+00   4.811478E+00   5.114633E+00   5.422420E+00   5.737511E+00   5.979053E+00   6.085086E+00   6.044179E+00   5.856079E+00   5.551419E+00   5.188764E+00   4.810505E+00   4.452140E+00   4.092809E+00   3.748705E+00   3.425126E+00   3.138520E+00   2.889327E+00   2.700562E+00   2.550655E+00   2.445075E+00   2.391443E+00   2.380173E+00   2.412660E+00   2.497421E+00   2.633893E+00   2.831014E+00   3.049752E+00   3.291707E+00   3.531693E+00   3.766300E+00   3.957888E+00   4.112975E+00   4.209225E+00   4.281492E+00   4.319105E+00   4.339293E+00   4.337306E+00   4.334847E+00   4.302959E+00   4.280872E+00   4.231466E+00   4.189504E+00   4.155324E+00   4.129867E+00   4.138961E+00   4.185482E+00   4.259154E+00   4.341278E+00   4.394389E+00   4.416004E+00   4.386450E+00   4.323682E+00   4.237351E+00   4.156313E+00   4.092173E+00   4.036640E+00
   3.901731E+00   3.809784E+00   3.713004E+00   3.630183E+00   3.558503E+00   3.492972E+00   3.438088E+00   3.386650E+00   3.350136E+00   3.288848E+00   3.216518E+00   3.121733E+00   3.023621E+00   2.922845E+00   2.831491E+00   2.753325E+00   2.701903E+00   2.678926E+00   2.699966E+00   2.742714E+00   2.817762E+00   2.926592E+00   3.056248E+00   3.230193E+00   3.438222E+00   3.675265E+00   3.932346E+00   4.187359E+00   4.434996E+00   4.641519E+00   4.791884E+00   4.871992E+00   4.908360E+00   4.864247E+00   4.746347E+00   4.553764E+00   4.323645E+00   4.030005E+00   3.758897E+00   3.508550E+00   3.313941E+00   3.156539E+00   3.022628E+00   2.903725E+00   2.799697E+00   2.721437E+00   2.671248E+00   2.639136E+00   2.636750E+00   2.670384E+00   2.738754E+00   2.822955E+00   2.910041E+00   2.960526E+00   2.976073E+00   2.960194E+00   2.945356E+00   2.944701E+00   2.982749E+00   3.057382E+00   3.184178E+00   3.341119E+00   3.498421E+00   3.626809E+00   3.702665E+00   3.704884E+00   3.642916E+00   3.534504E+00   3.393681E+00   3.237264E+00   3.073668E+00   2.923661E+00   2.787919E+00   2.690792E+00   2.641240E+00   2.635753E+00   2.664792E+00   2.728864E+00   2.799559E+00   2.865760E+00   2.917725E+00   2.930903E+00   2.905752E+00   2.851308E+00   2.781413E+00   2.704666E+00   2.636393E+00   2.598984E+00   2.598920E+00   2.653553E+00   2.769464E+00   2.935436E+00   3.118902E+00   3.298346E+00   3.441803E+00   3.517844E+00   3.533792E+00   3.508183E+00   3.444290E+00   3.340346E+00   3.192350E+00   3.012732E+00   2.849187E+00   2.706517E+00   2.596103E+00   2.518761E+00   2.464344E+00   2.428382E+00   2.404723E+00   2.406953E+00   2.422309E+00   2.448657E+00   2.486771E+00   2.553343E+00   2.621856E+00   2.698204E+00   2.789744E+00   2.883143E+00   3.000455E+00   3.141017E+00   3.319793E+00   3.523934E+00   3.753443E+00   3.991514E+00   4.187744E+00   4.355382E+00   4.461139E+00   4.499465E+00   4.505356E+00   4.484766E+00   4.418806E+00   4.309580E+00   4.154520E+00   4.001628E+00   3.840442E+00   3.701857E+00   3.601113E+00   3.565832E+00   3.584998E+00   3.674658E+00   3.811640E+00   4.004236E+00   4.233102E+00   4.505780E+00   4.817173E+00   5.152123E+00   5.489906E+00   5.837469E+00   6.113582E+00   6.269044E+00   6.251475E+00   6.082072E+00   5.759283E+00   5.355545E+00   4.928036E+00   4.504829E+00   4.099135E+00   3.720450E+00   3.368677E+00   3.066375E+00   2.811115E+00   2.601052E+00   2.445452E+00   2.332280E+00   2.270585E+00   2.254791E+00   2.288141E+00   2.376098E+00   2.523203E+00   2.715228E+00   2.944671E+00   3.190638E+00   3.443042E+00   3.688753E+00   3.913129E+00   4.079715E+00   4.192547E+00   4.246435E+00   4.279224E+00   4.268219E+00   4.247722E+00   4.206519E+00   4.172560E+00   4.135165E+00   4.108040E+00   4.081357E+00   4.088658E+00   4.122972E+00   4.193878E+00   4.301384E+00   4.424130E+00   4.541656E+00   4.623506E+00   4.634346E+00   4.598353E+00   4.522954E+00   4.414868E+00   4.300451E+00   4.189312E+00   4.089412E+00
   3.927679E+00   3.860446E+00   3.788388E+00   3.722921E+00   3.643417E+00   3.574762E+00   3.506874E+00   3.459871E+00   3.412362E+00   3.347498E+00   3.262853E+00   3.164167E+00   3.052955E+00   2.956304E+00   2.864988E+00   2.791520E+00   2.733469E+00   2.716382E+00   2.734839E+00   2.798067E+00   2.881753E+00   2.997710E+00   3.127894E+00   3.292901E+00   3.480211E+00   3.680978E+00   3.901180E+00   4.137775E+00   4.358062E+00   4.558846E+00   4.715751E+00   4.836756E+00   4.928502E+00   4.954174E+00   4.886271E+00   4.748925E+00   4.528822E+00   4.226809E+00   3.908114E+00   3.604116E+00   3.350947E+00   3.144571E+00   2.970809E+00   2.837072E+00   2.728310E+00   2.642812E+00   2.593852E+00   2.572633E+00   2.599837E+00   2.667084E+00   2.776200E+00   2.913440E+00   3.051564E+00   3.165960E+00   3.227950E+00   3.263749E+00   3.281062E+00   3.300977E+00   3.350776E+00   3.445445E+00   3.576325E+00   3.732063E+00   3.894084E+00   4.002347E+00   4.042303E+00   3.995080E+00   3.872391E+00   3.710624E+00   3.517484E+00   3.312884E+00   3.124885E+00   2.945923E+00   2.802835E+00   2.693961E+00   2.638407E+00   2.633637E+00   2.658988E+00   2.716174E+00   2.789333E+00   2.846972E+00   2.889154E+00   2.889898E+00   2.852356E+00   2.789485E+00   2.706292E+00   2.613451E+00   2.526345E+00   2.465124E+00   2.452109E+00   2.497653E+00   2.601521E+00   2.760600E+00   2.955602E+00   3.155997E+00   3.334834E+00   3.460393E+00   3.530207E+00   3.550159E+00   3.521917E+00   3.436408E+00   3.299230E+00   3.143634E+00   2.984224E+00   2.847531E+00   2.743618E+00   2.675313E+00   2.636041E+00   2.606118E+00   2.594813E+00   2.592312E+00   2.609438E+00   2.639503E+00   2.691446E+00   2.750879E+00   2.813073E+00   2.870719E+00   2.921365E+00   2.980978E+00   3.060537E+00   3.169348E+00   3.313369E+00   3.482861E+00   3.679277E+00   3.871769E+00   4.036253E+00   4.142835E+00   4.185205E+00   4.176033E+00   4.163204E+00   4.129687E+00   4.091826E+00   4.017642E+00   3.917274E+00   3.791195E+00   3.648057E+00   3.509073E+00   3.404804E+00   3.358158E+00   3.388846E+00   3.479799E+00   3.632340E+00   3.854212E+00   4.107986E+00   4.401064E+00   4.727346E+00   5.081875E+00   5.440473E+00   5.797052E+00   6.092457E+00   6.275084E+00   6.310605E+00   6.158328E+00   5.832474E+00   5.430027E+00   4.998747E+00   4.558923E+00   4.133388E+00   3.732036E+00   3.385505E+00   3.080829E+00   2.821311E+00   2.606465E+00   2.437148E+00   2.311246E+00   2.234147E+00   2.206298E+00   2.235559E+00   2.314884E+00   2.455805E+00   2.643929E+00   2.873244E+00   3.127790E+00   3.388946E+00   3.644167E+00   3.860894E+00   4.029698E+00   4.142477E+00   4.208915E+00   4.219986E+00   4.215808E+00   4.167796E+00   4.131075E+00   4.083765E+00   4.053411E+00   4.027400E+00   4.034350E+00   4.065834E+00   4.130542E+00   4.237917E+00   4.388808E+00   4.553386E+00   4.688104E+00   4.764790E+00   4.776760E+00   4.729723E+00   4.655022E+00   4.559397E+00   4.432751E+00   4.291661E+00   4.145159E+00
   3.979151E+00   3.955927E+00   3.915880E+00   3.845905E+00   3.786991E+00   3.702028E+00   3.640179E+00   3.585051E+00   3.538401E+00   3.469710E+00   3.374516E+00   3.260639E+00   3.136986E+00   3.032555E+00   2.942962E+00   2.871609E+00   2.819622E+00   2.790850E+00   2.820117E+00   2.883569E+00   2.984486E+00   3.110455E+00   3.237049E+00   3.391502E+00   3.556783E+00   3.739964E+00   3.941215E+00   4.130441E+00   4.330668E+00   4.528520E+00   4.721692E+00   4.875708E+00   4.993412E+00   5.067598E+00   5.074161E+00   4.979975E+00   4.778725E+00   4.475364E+00   4.123759E+00   3.773510E+00   3.476155E+00   3.219259E+00   3.016225E+00   2.855126E+00   2.731583E+00   2.650717E+00   2.602238E+00   2.606439E+00   2.658933E+00   2.753714E+00   2.901551E+00   3.083240E+00   3.264298E+00   3.424930E+00   3.535200E+00   3.600208E+00   3.640261E+00   3.670235E+00   3.741521E+00   3.854646E+00   4.002839E+00   4.173360E+00   4.335530E+00   4.434191E+00   4.437270E+00   4.350872E+00   4.188281E+00   3.979400E+00   3.749061E+00   3.519861E+00   3.295199E+00   3.104071E+00   2.943407E+00   2.832297E+00   2.759502E+00   2.729938E+00   2.734919E+00   2.771426E+00   2.823417E+00   2.866285E+00   2.879817E+00   2.862155E+00   2.807874E+00   2.741216E+00   2.650654E+00   2.550207E+00   2.459499E+00   2.393446E+00   2.381717E+00   2.431952E+00   2.542283E+00   2.698647E+00   2.900141E+00   3.109924E+00   3.315782E+00   3.493679E+00   3.620242E+00   3.673543E+00   3.670051E+00   3.599035E+00   3.483419E+00   3.343527E+00   3.199894E+00   3.071684E+00   2.981762E+00   2.925872E+00   2.895685E+00   2.879377E+00   2.873950E+00   2.873237E+00   2.885475E+00   2.914486E+00   2.965457E+00   3.022638E+00   3.066433E+00   3.108507E+00   3.122222E+00   3.139027E+00   3.170526E+00   3.221001E+00   3.308366E+00   3.420751E+00   3.553125E+00   3.682823E+00   3.774204E+00   3.813937E+00   3.802281E+00   3.771178E+00   3.743840E+00   3.736568E+00   3.735373E+00   3.735955E+00   3.699045E+00   3.620051E+00   3.521100E+00   3.398084E+00   3.291653E+00   3.229520E+00   3.249595E+00   3.343437E+00   3.512713E+00   3.753677E+00   4.030433E+00   4.332760E+00   4.645734E+00   4.978572E+00   5.325699E+00   5.670322E+00   5.978260E+00   6.190153E+00   6.239882E+00   6.110458E+00   5.834800E+00   5.472751E+00   5.047386E+00   4.617455E+00   4.185342E+00   3.798115E+00   3.451318E+00   3.153255E+00   2.899468E+00   2.673023E+00   2.492234E+00   2.357068E+00   2.272490E+00   2.236312E+00   2.257939E+00   2.327077E+00   2.455391E+00   2.631917E+00   2.853905E+00   3.110951E+00   3.385779E+00   3.642871E+00   3.848497E+00   3.999627E+00   4.091899E+00   4.131358E+00   4.142361E+00   4.115965E+00   4.074383E+00   4.032329E+00   3.995269E+00   3.960200E+00   3.949828E+00   3.955361E+00   4.000893E+00   4.076375E+00   4.203336E+00   4.372657E+00   4.537617E+00   4.676118E+00   4.759645E+00   4.768712E+00   4.728519E+00   4.656280E+00   4.567157E+00   4.446774E+00   4.311444E+00   4.159094E+00
   4.043843E+00   4.084056E+00   4.071283E+00   4.037115E+00   3.960740E+00   3.884932E+00   3.813484E+00   3.759377E+00   3.692926E+00   3.604031E+00   3.480013E+00   3.350133E+00   3.221320E+00   3.114103E+00   3.027655E+00   2.968483E+00   2.913619E+00   2.900920E+00   2.924332E+00   2.989049E+00   3.088148E+00   3.214397E+00   3.342029E+00   3.478629E+00   3.627226E+00   3.797372E+00   3.965698E+00   4.147659E+00   4.341744E+00   4.551674E+00   4.756173E+00   4.954501E+00   5.104970E+00   5.217362E+00   5.243658E+00   5.179989E+00   5.009014E+00   4.736299E+00   4.380599E+00   4.003856E+00   3.651802E+00   3.363810E+00   3.126786E+00   2.945171E+00   2.819727E+00   2.735951E+00   2.707187E+00   2.716944E+00   2.787413E+00   2.909133E+00   3.080519E+00   3.272386E+00   3.458144E+00   3.628336E+00   3.747905E+00   3.826079E+00   3.874259E+00   3.940869E+00   4.035897E+00   4.175391E+00   4.366387E+00   4.565700E+00   4.748666E+00   4.855648E+00   4.847159E+00   4.723578E+00   4.529799E+00   4.300921E+00   4.056490E+00   3.805173E+00   3.577389E+00   3.378141E+00   3.201237E+00   3.065076E+00   2.967414E+00   2.905120E+00   2.885416E+00   2.879946E+00   2.895538E+00   2.904187E+00   2.899286E+00   2.858465E+00   2.797955E+00   2.723549E+00   2.642374E+00   2.554628E+00   2.475258E+00   2.430193E+00   2.430960E+00   2.496533E+00   2.613171E+00   2.781573E+00   2.975458E+00   3.192895E+00   3.411708E+00   3.607544E+00   3.762851E+00   3.837445E+00   3.842367E+00   3.784202E+00   3.672204E+00   3.546428E+00   3.415563E+00   3.298413E+00   3.212216E+00   3.164426E+00   3.148729E+00   3.143591E+00   3.147933E+00   3.159897E+00   3.178931E+00   3.207627E+00   3.260310E+00   3.311072E+00   3.340557E+00   3.345934E+00   3.324590E+00   3.287867E+00   3.258267E+00   3.244890E+00   3.259609E+00   3.297765E+00   3.354100E+00   3.409751E+00   3.441935E+00   3.443858E+00   3.414795E+00   3.381879E+00   3.374720E+00   3.389929E+00   3.444611E+00   3.502544E+00   3.535375E+00   3.518914E+00   3.461814E+00   3.369461E+00   3.284306E+00   3.227773E+00   3.242897E+00   3.322401E+00   3.490915E+00   3.741598E+00   4.034284E+00   4.338737E+00   4.636449E+00   4.931813E+00   5.239970E+00   5.557216E+00   5.847021E+00   6.059933E+00   6.143576E+00   6.063282E+00   5.840440E+00   5.502024E+00   5.102767E+00   4.675501E+00   4.269708E+00   3.886023E+00   3.560051E+00   3.277957E+00   3.028243E+00   2.793582E+00   2.600844E+00   2.452317E+00   2.352004E+00   2.308999E+00   2.313985E+00   2.382414E+00   2.499607E+00   2.668900E+00   2.871848E+00   3.122637E+00   3.385000E+00   3.627291E+00   3.814745E+00   3.943733E+00   4.011643E+00   4.035430E+00   4.031578E+00   3.989995E+00   3.960675E+00   3.940912E+00   3.914861E+00   3.893273E+00   3.875768E+00   3.878463E+00   3.914092E+00   3.979138E+00   4.088661E+00   4.229581E+00   4.382184E+00   4.501356E+00   4.581968E+00   4.594557E+00   4.576188E+00   4.527875E+00   4.443001E+00   4.360975E+00   4.255213E+00   4.139301E+00
   4.118100E+00   4.210658E+00   4.262528E+00   4.249835E+00   4.208315E+00   4.124971E+00   4.065022E+00   3.997244E+00   3.909116E+00   3.779486E+00   3.618640E+00   3.458877E+00   3.315267E+00   3.196633E+00   3.115644E+00   3.068130E+00   3.036117E+00   3.024372E+00   3.037484E+00   3.091036E+00   3.170512E+00   3.276219E+00   3.403557E+00   3.531953E+00   3.672361E+00   3.816481E+00   3.980060E+00   4.159586E+00   4.383449E+00   4.596347E+00   4.813751E+00   5.005827E+00   5.181413E+00   5.289223E+00   5.335799E+00   5.285088E+00   5.156067E+00   4.924978E+00   4.611557E+00   4.239373E+00   3.877601E+00   3.554378E+00   3.295252E+00   3.101307E+00   2.959972E+00   2.877410E+00   2.847117E+00   2.876879E+00   2.957918E+00   3.078493E+00   3.238415E+00   3.413881E+00   3.595547E+00   3.736437E+00   3.842700E+00   3.909865E+00   3.973213E+00   4.057851E+00   4.187272E+00   4.376032E+00   4.611403E+00   4.858634E+00   5.050866E+00   5.164182E+00   5.161414E+00   5.043610E+00   4.842336E+00   4.609761E+00   4.365437E+00   4.127088E+00   3.916220E+00   3.719536E+00   3.534292E+00   3.381358E+00   3.237667E+00   3.137393E+00   3.067347E+00   3.019356E+00   2.985824E+00   2.954983E+00   2.920217E+00   2.866687E+00   2.804105E+00   2.741721E+00   2.669004E+00   2.616345E+00   2.575695E+00   2.565567E+00   2.600945E+00   2.681508E+00   2.828563E+00   3.010359E+00   3.222700E+00   3.449654E+00   3.653151E+00   3.812541E+00   3.942649E+00   4.019995E+00   4.008613E+00   3.951862E+00   3.841174E+00   3.725928E+00   3.609709E+00   3.506004E+00   3.425470E+00   3.373064E+00   3.342574E+00   3.343748E+00   3.354274E+00   3.379898E+00   3.413457E+00   3.449599E+00   3.492483E+00   3.513288E+00   3.511374E+00   3.486257E+00   3.432971E+00   3.358515E+00   3.270382E+00   3.189948E+00   3.132684E+00   3.100228E+00   3.091191E+00   3.086101E+00   3.077184E+00   3.064173E+00   3.045963E+00   3.046282E+00   3.069586E+00   3.128787E+00   3.219540E+00   3.329503E+00   3.413009E+00   3.460474E+00   3.453760E+00   3.415559E+00   3.354375E+00   3.319485E+00   3.333654E+00   3.424878E+00   3.583274E+00   3.817965E+00   4.090881E+00   4.376049E+00   4.642572E+00   4.914939E+00   5.189003E+00   5.481745E+00   5.739233E+00   5.936937E+00   6.021044E+00   5.969434E+00   5.783465E+00   5.506828E+00   5.158484E+00   4.774004E+00   4.398706E+00   4.037067E+00   3.707718E+00   3.425117E+00   3.169128E+00   2.936123E+00   2.729432E+00   2.576602E+00   2.472654E+00   2.422862E+00   2.430634E+00   2.485307E+00   2.601757E+00   2.751943E+00   2.948799E+00   3.172866E+00   3.409053E+00   3.626844E+00   3.804022E+00   3.901105E+00   3.955338E+00   3.968669E+00   3.953382E+00   3.917810E+00   3.893147E+00   3.872887E+00   3.862430E+00   3.836406E+00   3.818237E+00   3.802720E+00   3.816132E+00   3.857676E+00   3.934304E+00   4.038148E+00   4.145607E+00   4.244322E+00   4.295786E+00   4.321088E+00   4.321117E+00   4.298505E+00   4.258557E+00   4.217380E+00   4.165529E+00   4.084874E+00