# LPF package for  MODFLOW-2005, generated by Flopy.
         0    -1E+30         0  
         0
         0
   1.000000E+00
         0
         0
INTERNAL               1 (200E15.6) -1 #hk layer 1                    
   3.962810E+00   3.935301E+00   3.904663E+00   3.862656E+00   3.833916E+00   3.813498E+00   3.802150E+00   3.789411E+00   3.787796E+00   3.761528E+00   3.732081E+00   3.689032E+00   3.641773E+00   3.585336E+00   3.527711E+00   3.488783E+00   3.471256E+00   3.475564E+00   3.487816E+00   3.514915E+00   3.555423E+00   3.610144E+00   3.676165E+00   3.769670E+00   3.856355E+00   3.942537E+00   4.023910E+00   4.102493E+00   4.173245E+00   4.228749E+00   4.263336E+00   4.278008E+00   4.262311E+00   4.208573E+00   4.143936E+00   4.060846E+00   3.983458E+00   3.902298E+00   3.837134E+00   3.780232E+00   3.734195E+00   3.704862E+00   3.677508E+00   3.641321E+00   3.612014E+00   3.596092E+00   3.597733E+00   3.596299E+00   3.596915E+00   3.587543E+00   3.565752E+00   3.538345E+00   3.502483E+00   3.460801E+00   3.425064E+00   3.380321E+00   3.348010E+00   3.330582E+00   3.342557E+00   3.384751E+00   3.437867E+00   3.508638E+00   3.588981E+00   3.667534E+00   3.724893E+00   3.774153E+00   3.803725E+00   3.823953E+00   3.825903E+00   3.805967E+00   3.768550E+00   3.724174E+00   3.683815E+00   3.658773E+00   3.654679E+00   3.647122E+00   3.655391E+00   3.651701E+00   3.644511E+00   3.635095E+00   3.635697E+00   3.623680E+00   3.611341E+00   3.599393E+00   3.582996E+00   3.572146E+00   3.569924E+00   3.582246E+00   3.598215E+00   3.649019E+00   3.714898E+00   3.790916E+00   3.863302E+00   3.918356E+00   3.938099E+00   3.934331E+00   3.911844E+00   3.868219E+00   3.820256E+00   3.755305E+00   3.688874E+00   3.614432E+00   3.538885E+00   3.483584E+00   3.436846E+00   3.398642E+00   3.375452E+00   3.354336E+00   3.352370E+00   3.340824E+00   3.328529E+00   3.308814E+00   3.299208E+00   3.304872E+00   3.313707E+00   3.343856E+00   3.403265E+00   3.481777E+00   3.577302E+00   3.681793E+00   3.773051E+00   3.873321E+00   3.962978E+00   4.047318E+00   4.127052E+00   4.192575E+00   4.268195E+00   4.325170E+00   4.356800E+00   4.373087E+00   4.360280E+00   4.335647E+00   4.308456E+00   4.267690E+00   4.213085E+00   4.169175E+00   4.111169E+00   4.072437E+00   4.050537E+00   4.051661E+00   4.074350E+00   4.106907E+00   4.158892E+00   4.213415E+00   4.279622E+00   4.349218E+00   4.431514E+00   4.525317E+00   4.590861E+00   4.617094E+00   4.596009E+00   4.545509E+00   4.458042E+00   4.371109E+00   4.269431E+00   4.164193E+00   4.064229E+00   3.962326E+00   3.866728E+00   3.760945E+00   3.673757E+00   3.573252E+00   3.493995E+00   3.440169E+00   3.402019E+00   3.385233E+00   3.389271E+00   3.415341E+00   3.461539E+00   3.545058E+00   3.647930E+00   3.757050E+00   3.870836E+00   3.969877E+00   4.043781E+00   4.095067E+00   4.129678E+00   4.161096E+00   4.187603E+00   4.202648E+00   4.222453E+00   4.238521E+00   4.251881E+00   4.250542E+00   4.239019E+00   4.202285E+00   4.153170E+00   4.090007E+00   4.032137E+00   3.993716E+00   3.975662E+00   3.977510E+00   3.985439E+00   4.000469E+00   4.005299E+00   4.010334E+00   4.009999E+00   3.991221E+00   3.983201E+00   3.979292E+00
   3.931129E+00   3.887799E+00   3.829880E+00   3.762703E+00   3.694650E+00   3.655626E+00   3.623633E+00   3.599863E+00   3.585597E+00   3.569178E+00   3.518290E+00   3.459021E+00   3.366320E+00   3.277657E+00   3.189037E+00   3.124312E+00   3.088068E+00   3.089400E+00   3.108812E+00   3.145866E+00   3.206841E+00   3.294696E+00   3.408737E+00   3.546012E+00   3.701129E+00   3.869220E+00   4.044006E+00   4.212692E+00   4.363646E+00   4.476559E+00   4.542471E+00   4.578217E+00   4.539123E+00   4.449651E+00   4.313511E+00   4.166609E+00   4.016572E+00   3.866123E+00   3.720913E+00   3.616910E+00   3.531760E+00   3.477267E+00   3.426326E+00   3.377867E+00   3.326648E+00   3.299140E+00   3.291156E+00   3.285285E+00   3.282610E+00   3.269231E+00   3.241705E+00   3.197861E+00   3.151690E+00   3.091365E+00   3.018970E+00   2.952794E+00   2.904536E+00   2.881196E+00   2.896744E+00   2.955774E+00   3.048249E+00   3.177433E+00   3.316466E+00   3.439407E+00   3.540919E+00   3.620231E+00   3.659782E+00   3.670847E+00   3.654458E+00   3.607691E+00   3.536719E+00   3.462960E+00   3.394746E+00   3.346514E+00   3.318152E+00   3.305635E+00   3.306665E+00   3.317163E+00   3.330649E+00   3.344557E+00   3.346075E+00   3.339571E+00   3.320194E+00   3.291466E+00   3.255467E+00   3.224041E+00   3.214219E+00   3.223208E+00   3.256912E+00   3.326735E+00   3.449584E+00   3.571643E+00   3.708137E+00   3.808248E+00   3.860995E+00   3.866040E+00   3.817647E+00   3.748343E+00   3.659096E+00   3.553341E+00   3.436331E+00   3.309492E+00   3.182961E+00   3.082192E+00   3.002872E+00   2.939662E+00   2.899104E+00   2.875635E+00   2.857874E+00   2.842608E+00   2.823065E+00   2.810414E+00   2.814377E+00   2.823848E+00   2.855576E+00   2.913055E+00   2.996769E+00   3.108189E+00   3.251551E+00   3.408051E+00   3.570840E+00   3.748434E+00   3.919908E+00   4.086915E+00   4.236333E+00   4.381843E+00   4.511760E+00   4.608222E+00   4.648834E+00   4.659320E+00   4.639373E+00   4.593897E+00   4.519387E+00   4.415935E+00   4.309843E+00   4.212786E+00   4.140371E+00   4.086962E+00   4.074019E+00   4.088850E+00   4.139200E+00   4.223035E+00   4.297702E+00   4.407324E+00   4.526324E+00   4.681514E+00   4.855213E+00   5.038543E+00   5.183264E+00   5.231019E+00   5.195988E+00   5.073144E+00   4.905636E+00   4.710820E+00   4.497755E+00   4.285010E+00   4.077567E+00   3.883893E+00   3.689816E+00   3.513462E+00   3.339419E+00   3.195223E+00   3.067332E+00   2.986429E+00   2.935969E+00   2.911119E+00   2.919355E+00   2.971908E+00   3.068600E+00   3.208303E+00   3.374341E+00   3.558618E+00   3.747002E+00   3.910204E+00   4.046207E+00   4.142868E+00   4.213877E+00   4.271277E+00   4.313629E+00   4.348466E+00   4.379704E+00   4.415024E+00   4.425285E+00   4.420431E+00   4.382227E+00   4.328854E+00   4.247913E+00   4.153177E+00   4.068568E+00   4.005116E+00   4.004231E+00   4.019135E+00   4.045157E+00   4.059880E+00   4.058269E+00   4.055011E+00   4.037026E+00   4.011861E+00   3.986764E+00   3.982338E+00
   3.911493E+00   3.831594E+00   3.749227E+00   3.665450E+00   3.598536E+00   3.527615E+00   3.482168E+00   3.448266E+00   3.426447E+00   3.389912E+00   3.342343E+00   3.261603E+00   3.174612E+00   3.070516E+00   2.974548E+00   2.897188E+00   2.853177E+00   2.845849E+00   2.866072E+00   2.912332E+00   2.976299E+00   3.078963E+00   3.215523E+00   3.387274E+00   3.576682E+00   3.792987E+00   4.037570E+00   4.276156E+00   4.494975E+00   4.656984E+00   4.767801E+00   4.800901E+00   4.762261E+00   4.652115E+00   4.500003E+00   4.292409E+00   4.081791E+00   3.862661E+00   3.679489E+00   3.528115E+00   3.415489E+00   3.324779E+00   3.258597E+00   3.193984E+00   3.126418E+00   3.063189E+00   3.038578E+00   3.013540E+00   3.011591E+00   3.010557E+00   3.004009E+00   2.978829E+00   2.952732E+00   2.897430E+00   2.834357E+00   2.772315E+00   2.717546E+00   2.691616E+00   2.709510E+00   2.778956E+00   2.893492E+00   3.038401E+00   3.196756E+00   3.347615E+00   3.465072E+00   3.536519E+00   3.565427E+00   3.554717E+00   3.505300E+00   3.429561E+00   3.323611E+00   3.222496E+00   3.129594E+00   3.062850E+00   3.020895E+00   3.000622E+00   3.008522E+00   3.033314E+00   3.074440E+00   3.110951E+00   3.130911E+00   3.131317E+00   3.116507E+00   3.074051E+00   3.034237E+00   2.993246E+00   2.964934E+00   2.957739E+00   2.984571E+00   3.066823E+00   3.196433E+00   3.362280E+00   3.523998E+00   3.668038E+00   3.738993E+00   3.748675E+00   3.707996E+00   3.629993E+00   3.534019E+00   3.403692E+00   3.256096E+00   3.102122E+00   2.953350E+00   2.817533E+00   2.714648E+00   2.634031E+00   2.576880E+00   2.543792E+00   2.525964E+00   2.512307E+00   2.502332E+00   2.501068E+00   2.520342E+00   2.552218E+00   2.595056E+00   2.671638E+00   2.768790E+00   2.892148E+00   3.055683E+00   3.236621E+00   3.429525E+00   3.652570E+00   3.877809E+00   4.097657E+00   4.299339E+00   4.472280E+00   4.633235E+00   4.738684E+00   4.800685E+00   4.799729E+00   4.755131E+00   4.666973E+00   4.541897E+00   4.403451E+00   4.262836E+00   4.145384E+00   4.047431E+00   4.002507E+00   3.998123E+00   4.043298E+00   4.128479E+00   4.227413E+00   4.359911E+00   4.515580E+00   4.711457E+00   4.935308E+00   5.205594E+00   5.455976E+00   5.644019E+00   5.717966E+00   5.675871E+00   5.513264E+00   5.266245E+00   4.981818E+00   4.677904E+00   4.378155E+00   4.084984E+00   3.801362E+00   3.529337E+00   3.281568E+00   3.065834E+00   2.875654E+00   2.743384E+00   2.652296E+00   2.600482E+00   2.586940E+00   2.617011E+00   2.693008E+00   2.816344E+00   2.984145E+00   3.191962E+00   3.408663E+00   3.632320E+00   3.836516E+00   4.016781E+00   4.146620E+00   4.244257E+00   4.310056E+00   4.362074E+00   4.400613E+00   4.423564E+00   4.430989E+00   4.437828E+00   4.415982E+00   4.374430E+00   4.306696E+00   4.231924E+00   4.167595E+00   4.107840E+00   4.083488E+00   4.095866E+00   4.140849E+00   4.191662E+00   4.206649E+00   4.196601E+00   4.158384E+00   4.116775E+00   4.076174E+00   4.039347E+00   4.009661E+00
   3.896441E+00   3.808159E+00   3.706775E+00   3.617247E+00   3.544180E+00   3.483454E+00   3.426453E+00   3.386341E+00   3.348554E+00   3.304978E+00   3.237679E+00   3.162077E+00   3.060405E+00   2.958599E+00   2.860995E+00   2.788098E+00   2.737930E+00   2.722002E+00   2.738754E+00   2.785417E+00   2.846828E+00   2.944008E+00   3.080970E+00   3.263520E+00   3.475997E+00   3.717772E+00   3.983130E+00   4.264380E+00   4.516165E+00   4.715958E+00   4.849964E+00   4.915281E+00   4.877268E+00   4.796330E+00   4.626643E+00   4.407071E+00   4.158833E+00   3.903723E+00   3.670562E+00   3.491473E+00   3.346956E+00   3.228213E+00   3.123876E+00   3.027609E+00   2.943048E+00   2.872371E+00   2.826476E+00   2.790773E+00   2.785970E+00   2.799495E+00   2.824354E+00   2.847356E+00   2.863646E+00   2.862899E+00   2.829661E+00   2.784337E+00   2.741158E+00   2.725672E+00   2.748469E+00   2.821181E+00   2.940842E+00   3.095228E+00   3.255868E+00   3.401123E+00   3.504224E+00   3.550853E+00   3.540694E+00   3.482822E+00   3.396606E+00   3.283336E+00   3.157604E+00   3.024575E+00   2.914184E+00   2.824674E+00   2.781020E+00   2.771835E+00   2.795028E+00   2.835508E+00   2.895301E+00   2.947160E+00   2.991866E+00   3.007896E+00   2.995667E+00   2.954978E+00   2.894058E+00   2.836884E+00   2.786681E+00   2.764308E+00   2.783932E+00   2.851915E+00   2.984905E+00   3.145552E+00   3.331675E+00   3.492168E+00   3.601075E+00   3.640695E+00   3.616765E+00   3.548921E+00   3.453985E+00   3.323932E+00   3.169401E+00   2.996056E+00   2.833105E+00   2.695096E+00   2.574299E+00   2.488194E+00   2.434271E+00   2.393806E+00   2.381145E+00   2.367055E+00   2.370593E+00   2.385083E+00   2.415740E+00   2.465930E+00   2.529690E+00   2.615932E+00   2.714079E+00   2.835198E+00   2.981535E+00   3.154603E+00   3.349838E+00   3.570965E+00   3.813063E+00   4.058889E+00   4.280499E+00   4.464085E+00   4.608788E+00   4.704072E+00   4.741652E+00   4.729115E+00   4.662432E+00   4.551928E+00   4.400476E+00   4.236612E+00   4.082927E+00   3.945236E+00   3.857075E+00   3.807923E+00   3.816897E+00   3.888227E+00   4.005721E+00   4.150551E+00   4.329744E+00   4.554162E+00   4.812002E+00   5.115172E+00   5.422975E+00   5.738081E+00   5.979615E+00   6.085626E+00   6.044687E+00   5.856544E+00   5.551841E+00   5.189148E+00   4.810868E+00   4.452496E+00   4.093175E+00   3.749089E+00   3.425529E+00   3.138937E+00   2.889757E+00   2.701003E+00   2.551107E+00   2.445543E+00   2.391929E+00   2.380683E+00   2.413197E+00   2.497995E+00   2.634516E+00   2.831703E+00   3.050515E+00   3.292550E+00   3.532614E+00   3.767281E+00   3.958911E+00   4.114015E+00   4.210261E+00   4.282503E+00   4.320069E+00   4.340191E+00   4.338116E+00   4.335551E+00   4.303541E+00   4.281322E+00   4.231778E+00   4.189681E+00   4.155383E+00   4.129830E+00   4.138859E+00   4.185343E+00   4.259014E+00   4.341156E+00   4.394297E+00   4.415942E+00   4.386404E+00   4.323636E+00   4.237298E+00   4.156257E+00   4.092123E+00   4.036613E+00
   3.901825E+00   3.809952E+00   3.713218E+00   3.630416E+00   3.558733E+00   3.493188E+00   3.438285E+00   3.386825E+00   3.350281E+00   3.288959E+00   3.216589E+00   3.121762E+00   3.023605E+00   2.922788E+00   2.831400E+00   2.753209E+00   2.701768E+00   2.678775E+00   2.699800E+00   2.742536E+00   2.817575E+00   2.926397E+00   3.056043E+00   3.229976E+00   3.437986E+00   3.675011E+00   3.932075E+00   4.187078E+00   4.434704E+00   4.641215E+00   4.791558E+00   4.871634E+00   4.907952E+00   4.863780E+00   4.745808E+00   4.553162E+00   4.322993E+00   4.029327E+00   3.758199E+00   3.507847E+00   3.313240E+00   3.155842E+00   3.021944E+00   2.903061E+00   2.799056E+00   2.720815E+00   2.670642E+00   2.638551E+00   2.636185E+00   2.669845E+00   2.738241E+00   2.822470E+00   2.909578E+00   2.960089E+00   2.975667E+00   2.959819E+00   2.945014E+00   2.944387E+00   2.982459E+00   3.057116E+00   3.183935E+00   3.340903E+00   3.498232E+00   3.626646E+00   3.702527E+00   3.704764E+00   3.642806E+00   3.534394E+00   3.393559E+00   3.237127E+00   3.073516E+00   2.923499E+00   2.787754E+00   2.690626E+00   2.641075E+00   2.635590E+00   2.664632E+00   2.728709E+00   2.799414E+00   2.865632E+00   2.917625E+00   2.930841E+00   2.905738E+00   2.851347E+00   2.781506E+00   2.704809E+00   2.636580E+00   2.599215E+00   2.599192E+00   2.653866E+00   2.769827E+00   2.935855E+00   3.119384E+00   3.298896E+00   3.442416E+00   3.518508E+00   3.534489E+00   3.508894E+00   3.444998E+00   3.341031E+00   3.192992E+00   3.013318E+00   2.849710E+00   2.706976E+00   2.596498E+00   2.519089E+00   2.464598E+00   2.428556E+00   2.404812E+00   2.406955E+00   2.422224E+00   2.448492E+00   2.486537E+00   2.553050E+00   2.621521E+00   2.697843E+00   2.789373E+00   2.882781E+00   3.000112E+00   3.140711E+00   3.319539E+00   3.523753E+00   3.753345E+00   3.991507E+00   4.187828E+00   4.355551E+00   4.461391E+00   4.499782E+00   4.505727E+00   4.485183E+00   4.419273E+00   4.310099E+00   4.155093E+00   4.002244E+00   3.841080E+00   3.702498E+00   3.601744E+00   3.566447E+00   3.585594E+00   3.675244E+00   3.812226E+00   4.004831E+00   4.233710E+00   4.506406E+00   4.817813E+00   5.152775E+00   5.490562E+00   5.838114E+00   6.114199E+00   6.269614E+00   6.251996E+00   6.082546E+00   5.759712E+00   5.355936E+00   4.928401E+00   4.505192E+00   4.099509E+00   3.720842E+00   3.369088E+00   3.066804E+00   2.811562E+00   2.601514E+00   2.445927E+00   2.332770E+00   2.271093E+00   2.255321E+00   2.288700E+00   2.376697E+00   2.523853E+00   2.715943E+00   2.945460E+00   3.191506E+00   3.443989E+00   3.689767E+00   3.914186E+00   4.080791E+00   4.193616E+00   4.247472E+00   4.280211E+00   4.269133E+00   4.248547E+00   4.207238E+00   4.173158E+00   4.135626E+00   4.108359E+00   4.081539E+00   4.088715E+00   4.122924E+00   4.193750E+00   4.301213E+00   4.423948E+00   4.541497E+00   4.623375E+00   4.634249E+00   4.598278E+00   4.522892E+00   4.414809E+00   4.300392E+00   4.189265E+00   4.089385E+00
   3.927770E+00   3.860611E+00   3.788600E+00   3.723153E+00   3.643643E+00   3.574968E+00   3.507050E+00   3.460011E+00   3.412465E+00   3.347559E+00   3.262869E+00   3.164137E+00   3.052882E+00   2.956191E+00   2.864841E+00   2.791346E+00   2.733274E+00   2.716169E+00   2.734612E+00   2.797828E+00   2.881507E+00   2.997458E+00   3.127636E+00   3.292631E+00   3.479925E+00   3.680676E+00   3.900865E+00   4.137447E+00   4.357721E+00   4.558489E+00   4.715374E+00   4.836342E+00   4.928035E+00   4.953637E+00   4.885653E+00   4.748219E+00   4.528049E+00   4.226000E+00   3.907290E+00   3.603293E+00   3.350137E+00   3.143781E+00   2.970046E+00   2.836337E+00   2.727601E+00   2.642126E+00   2.593182E+00   2.571978E+00   2.599195E+00   2.666456E+00   2.775591E+00   2.912850E+00   3.050999E+00   3.165426E+00   3.227457E+00   3.263297E+00   3.280649E+00   3.300602E+00   3.350437E+00   3.445139E+00   3.576056E+00   3.731834E+00   3.893901E+00   4.002208E+00   4.042209E+00   3.995018E+00   3.872345E+00   3.710579E+00   3.517423E+00   3.312799E+00   3.124774E+00   2.945789E+00   2.802681E+00   2.693794E+00   2.638232E+00   2.633454E+00   2.658800E+00   2.715983E+00   2.789145E+00   2.846798E+00   2.889006E+00   2.889787E+00   2.852293E+00   2.789477E+00   2.706342E+00   2.613555E+00   2.526502E+00   2.465326E+00   2.452353E+00   2.497940E+00   2.601859E+00   2.760997E+00   2.956074E+00   3.156548E+00   3.335466E+00   3.461092E+00   3.530957E+00   3.550939E+00   3.522706E+00   3.437180E+00   3.299965E+00   3.144316E+00   2.984842E+00   2.848080E+00   2.744093E+00   2.675705E+00   2.636344E+00   2.606324E+00   2.594918E+00   2.592313E+00   2.609338E+00   2.639310E+00   2.691168E+00   2.750532E+00   2.812670E+00   2.870281E+00   2.920916E+00   2.980535E+00   3.060115E+00   3.168965E+00   3.313042E+00   3.482609E+00   3.679115E+00   3.871703E+00   4.036284E+00   4.142956E+00   4.185405E+00   4.176300E+00   4.163524E+00   4.130058E+00   4.092255E+00   4.018134E+00   3.917829E+00   3.791802E+00   3.648696E+00   3.509718E+00   3.405442E+00   3.358781E+00   3.389457E+00   3.480406E+00   3.632954E+00   3.854847E+00   4.108644E+00   4.401746E+00   4.728046E+00   5.082586E+00   5.441171E+00   5.797708E+00   6.093047E+00   6.275602E+00   6.311056E+00   6.158730E+00   5.832836E+00   5.430364E+00   4.999076E+00   4.559263E+00   4.133743E+00   3.732415E+00   3.385906E+00   3.081257E+00   2.821761E+00   2.606935E+00   2.437631E+00   2.311743E+00   2.234659E+00   2.206829E+00   2.236115E+00   2.315473E+00   2.456439E+00   2.644621E+00   2.874007E+00   3.128631E+00   3.389862E+00   3.645146E+00   3.861915E+00   4.030738E+00   4.143509E+00   4.209917E+00   4.220937E+00   4.216694E+00   4.168599E+00   4.131784E+00   4.084358E+00   4.053874E+00   4.027725E+00   4.034539E+00   4.065898E+00   4.130494E+00   4.237785E+00   4.388617E+00   4.553174E+00   4.687895E+00   4.764609E+00   4.776611E+00   4.729602E+00   4.654921E+00   4.559312E+00   4.432684E+00   4.291610E+00   4.145132E+00
   3.979225E+00   3.956063E+00   3.916052E+00   3.846088E+00   3.787164E+00   3.702173E+00   3.640286E+00   3.585115E+00   3.538427E+00   3.469694E+00   3.374456E+00   3.260534E+00   3.136837E+00   3.032364E+00   2.942735E+00   2.871350E+00   2.819337E+00   2.790551E+00   2.819806E+00   2.883250E+00   2.984164E+00   3.110131E+00   3.236723E+00   3.391171E+00   3.556445E+00   3.739620E+00   3.940862E+00   4.130080E+00   4.330291E+00   4.528126E+00   4.721272E+00   4.875249E+00   4.992889E+00   5.066993E+00   5.073458E+00   4.979175E+00   4.777847E+00   4.474443E+00   4.122826E+00   3.772591E+00   3.475259E+00   3.218400E+00   3.015399E+00   2.854336E+00   2.730820E+00   2.649971E+00   2.601504E+00   2.605708E+00   2.658198E+00   2.752978E+00   2.900817E+00   3.082517E+00   3.263600E+00   3.424268E+00   3.534591E+00   3.599656E+00   3.639768E+00   3.669801E+00   3.741146E+00   3.854328E+00   4.002581E+00   4.173166E+00   4.335402E+00   4.434127E+00   4.437257E+00   4.350891E+00   4.188314E+00   3.979429E+00   3.749068E+00   3.519836E+00   3.295137E+00   3.103974E+00   2.943277E+00   2.832141E+00   2.759324E+00   2.729741E+00   2.734705E+00   2.771201E+00   2.823187E+00   2.866061E+00   2.879615E+00   2.861988E+00   2.807754E+00   2.741147E+00   2.650644E+00   2.550257E+00   2.459606E+00   2.393605E+00   2.381924E+00   2.432206E+00   2.542590E+00   2.699018E+00   2.900589E+00   3.110462E+00   3.316410E+00   3.494393E+00   3.621024E+00   3.674368E+00   3.670894E+00   3.599873E+00   3.484230E+00   3.344291E+00   3.200595E+00   3.072309E+00   2.982305E+00   2.926321E+00   2.896031E+00   2.879610E+00   2.874066E+00   2.873236E+00   2.885361E+00   2.914268E+00   2.965143E+00   3.022243E+00   3.065976E+00   3.108006E+00   3.121707E+00   3.138517E+00   3.170039E+00   3.220558E+00   3.307981E+00   3.420445E+00   3.552910E+00   3.682706E+00   3.774186E+00   3.814008E+00   3.802427E+00   3.771387E+00   3.744100E+00   3.736881E+00   3.735752E+00   3.736410E+00   3.699579E+00   3.620644E+00   3.521730E+00   3.398726E+00   3.292284E+00   3.230129E+00   3.250189E+00   3.344027E+00   3.513314E+00   3.754303E+00   4.031091E+00   4.333449E+00   4.646440E+00   4.979277E+00   5.326366E+00   5.670918E+00   5.978760E+00   6.190557E+00   6.240204E+00   6.110726E+00   5.835042E+00   5.472987E+00   5.047641E+00   4.617737E+00   4.185658E+00   3.798464E+00   3.451701E+00   3.153671E+00   2.899913E+00   2.673488E+00   2.492717E+00   2.357565E+00   2.273002E+00   2.236840E+00   2.258488E+00   2.327651E+00   2.456000E+00   2.632573E+00   2.854621E+00   3.111735E+00   3.386631E+00   3.643781E+00   3.849447E+00   4.000593E+00   4.092855E+00   4.132283E+00   4.143235E+00   4.116777E+00   4.075125E+00   4.032990E+00   3.995833E+00   3.960655E+00   3.950162E+00   3.955576E+00   4.000986E+00   4.076360E+00   4.203225E+00   4.372474E+00   4.537387E+00   4.675875E+00   4.759413E+00   4.768509E+00   4.728352E+00   4.656148E+00   4.567056E+00   4.446702E+00   4.311399E+00   4.159071E+00
   4.043890E+00   4.084142E+00   4.071385E+00   4.037215E+00   3.960819E+00   3.884974E+00   3.813481E+00   3.759332E+00   3.692843E+00   3.603913E+00   3.479857E+00   3.349934E+00   3.221076E+00   3.113812E+00   3.027324E+00   2.968117E+00   2.913228E+00   2.900513E+00   2.923918E+00   2.988631E+00   3.087731E+00   3.213983E+00   3.341621E+00   3.478225E+00   3.626825E+00   3.796974E+00   3.965299E+00   4.147253E+00   4.341327E+00   4.551235E+00   4.755706E+00   4.953985E+00   5.104388E+00   5.216690E+00   5.242888E+00   5.179116E+00   5.008063E+00   4.735294E+00   4.379583E+00   4.002864E+00   3.650853E+00   3.362904E+00   3.125921E+00   2.944341E+00   2.818919E+00   2.735154E+00   2.706388E+00   2.716135E+00   2.786582E+00   2.908280E+00   3.079653E+00   3.271522E+00   3.457304E+00   3.627541E+00   3.747177E+00   3.825432E+00   3.873699E+00   3.940395E+00   4.035509E+00   4.175090E+00   4.366176E+00   4.565585E+00   4.748641E+00   4.855699E+00   4.847263E+00   4.723711E+00   4.529938E+00   4.301045E+00   4.056582E+00   3.805224E+00   3.577391E+00   3.378091E+00   3.201140E+00   3.064935E+00   2.967234E+00   2.904907E+00   2.885173E+00   2.879682E+00   2.895261E+00   2.903910E+00   2.899025E+00   2.858236E+00   2.797767E+00   2.723412E+00   2.642297E+00   2.554615E+00   2.475310E+00   2.430305E+00   2.431129E+00   2.496760E+00   2.613461E+00   2.781936E+00   2.975902E+00   3.193434E+00   3.412348E+00   3.608280E+00   3.763667E+00   3.838310E+00   3.843257E+00   3.785090E+00   3.673068E+00   3.547246E+00   3.416317E+00   3.299087E+00   3.212800E+00   3.164910E+00   3.149101E+00   3.143842E+00   3.148058E+00   3.159896E+00   3.178810E+00   3.207396E+00   3.259977E+00   3.310657E+00   3.340077E+00   3.345414E+00   3.324055E+00   3.287342E+00   3.257770E+00   3.244438E+00   3.259215E+00   3.297446E+00   3.353866E+00   3.409606E+00   3.441881E+00   3.443883E+00   3.414888E+00   3.382027E+00   3.374919E+00   3.390184E+00   3.444940E+00   3.502963E+00   3.535880E+00   3.519491E+00   3.462434E+00   3.370096E+00   3.284929E+00   3.228368E+00   3.243470E+00   3.322965E+00   3.491486E+00   3.742192E+00   4.034910E+00   4.339390E+00   4.637107E+00   4.932450E+00   5.240547E+00   5.557699E+00   5.847388E+00   6.060190E+00   6.143750E+00   6.063404E+00   5.840545E+00   5.502151E+00   5.102934E+00   4.675717E+00   4.269972E+00   3.886333E+00   3.560407E+00   3.278358E+00   3.028681E+00   2.794048E+00   2.601332E+00   2.452823E+00   2.352525E+00   2.309535E+00   2.314533E+00   2.382981E+00   2.500198E+00   2.669524E+00   2.872513E+00   3.123349E+00   3.385765E+00   3.628101E+00   3.815585E+00   3.944584E+00   4.012481E+00   4.036236E+00   4.032342E+00   3.990705E+00   3.961330E+00   3.941505E+00   3.915384E+00   3.893715E+00   3.876120E+00   3.878716E+00   3.914245E+00   3.979187E+00   4.088614E+00   4.229448E+00   4.381986E+00   4.501126E+00   4.581736E+00   4.594349E+00   4.576014E+00   4.527737E+00   4.442901E+00   4.360912E+00   4.255178E+00   4.139287E+00
   4.118117E+00   4.210684E+00   4.262552E+00   4.249837E+00   4.208285E+00   4.124897E+00   4.064902E+00   3.997078E+00   3.908914E+00   3.779251E+00   3.618370E+00   3.458567E+00   3.314908E+00   3.196224E+00   3.115187E+00   3.067636E+00   3.035598E+00   3.023842E+00   3.036953E+00   3.090507E+00   3.169988E+00   3.275701E+00   3.403044E+00   3.531450E+00   3.671869E+00   3.816000E+00   3.979589E+00   4.159118E+00   4.382966E+00   4.595848E+00   4.813222E+00   5.005258E+00   5.180780E+00   5.288512E+00   5.334990E+00   5.284191E+00   5.155084E+00   4.923939E+00   4.610497E+00   4.238337E+00   3.876611E+00   3.553440E+00   3.294358E+00   3.100447E+00   2.959131E+00   2.876571E+00   2.846265E+00   2.875997E+00   2.956995E+00   3.077536E+00   3.237433E+00   3.412894E+00   3.594579E+00   3.735521E+00   3.841863E+00   3.909129E+00   3.972584E+00   4.057337E+00   4.186875E+00   4.375758E+00   4.611255E+00   4.858616E+00   5.050962E+00   5.164367E+00   5.161653E+00   5.043869E+00   4.842590E+00   4.609991E+00   4.365628E+00   4.127231E+00   3.916303E+00   3.719548E+00   3.534233E+00   3.381230E+00   3.237480E+00   3.137154E+00   3.067063E+00   3.019039E+00   2.985487E+00   2.954645E+00   2.919897E+00   2.866397E+00   2.803860E+00   2.741530E+00   2.668876E+00   2.616284E+00   2.575703E+00   2.565643E+00   2.601089E+00   2.681722E+00   2.828856E+00   3.010736E+00   3.223174E+00   3.450231E+00   3.653834E+00   3.813318E+00   3.943502E+00   4.020903E+00   4.009544E+00   3.952793E+00   3.842073E+00   3.726775E+00   3.610486E+00   3.506696E+00   3.426066E+00   3.373556E+00   3.342954E+00   3.344009E+00   3.354410E+00   3.379909E+00   3.413347E+00   3.449378E+00   3.492165E+00   3.512893E+00   3.510928E+00   3.485780E+00   3.432486E+00   3.358047E+00   3.269943E+00   3.189553E+00   3.132342E+00   3.099952E+00   3.090986E+00   3.085969E+00   3.077124E+00   3.064177E+00   3.046022E+00   3.046392E+00   3.069748E+00   3.129010E+00   3.219840E+00   3.329894E+00   3.413494E+00   3.461034E+00   3.454370E+00   3.416188E+00   3.354995E+00   3.320079E+00   3.334225E+00   3.425436E+00   3.583828E+00   3.818528E+00   4.091458E+00   4.376633E+00   4.643143E+00   4.915465E+00   5.189449E+00   5.482078E+00   5.739450E+00   5.937046E+00   6.021077E+00   5.969429E+00   5.783463E+00   5.506861E+00   5.158576E+00   4.774158E+00   4.398926E+00   4.037345E+00   3.708051E+00   3.425505E+00   3.169559E+00   2.936590E+00   2.729926E+00   2.577119E+00   2.473189E+00   2.423410E+00   2.431194E+00   2.485877E+00   2.602343E+00   2.752546E+00   2.949424E+00   3.173516E+00   3.409732E+00   3.627552E+00   3.804750E+00   3.901836E+00   3.956053E+00   3.969356E+00   3.954033E+00   3.918423E+00   3.893725E+00   3.873426E+00   3.862924E+00   3.836848E+00   3.818616E+00   3.803030E+00   3.816361E+00   3.857819E+00   3.934360E+00   4.038124E+00   4.145515E+00   4.244185E+00   4.295634E+00   4.320946E+00   4.321000E+00   4.298417E+00   4.258498E+00   4.217350E+00   4.165515E+00   4.084872E+00